DSS_Simulator/ieee650v2_Renamed_withpv/m1/Branches.dss
New "Line.ln5815900-1" length=0.01959334 units=km linecode=3PH_H-397_ACSR397_ACSR397_ACSR397_ACSR Seasons=1 Ratings=[400,] normamps=0.1 emergamps=20 bus1=7 bus2=8
New "Line.ln5742828-1" length=0.02525228 units=km linecode=3PH_H-397_ACSR397_ACSR397_ACSR397_ACSR Seasons=1 Ratings=[400,] normamps=0.1 emergamps=20 bus1=8 bus2=9
New "Line.ln5742828-2" length=0.06927271 units=km linecode=3PH_H-397_ACSR397_ACSR397_ACSR397_ACSR Seasons=1 Ratings=[400,] normamps=0.1 emergamps=20 bus1=9 bus2=10
New "Line.ln5473414-1" length=0.1069487 units=km linecode=3PH_H-397_ACSR397_ACSR397_ACSR397_ACSR Seasons=1 Ratings=[400,] normamps=0.1 emergamps=20 bus1=10 bus2=11
New "Line.ln5714974-1" length=0.1226045 units=km linecode=3PH_H-397_ACSR397_ACSR397_ACSR397_ACSR Seasons=1 Ratings=[400,] normamps=0.1 emergamps=20 bus1=11 bus2=12
New "Line.ln5896798-1" length=0.04415994 units=km linecode=3PH_H-397_ACSR397_ACSR397_ACSR397_ACSR Seasons=1 Ratings=[400,] normamps=0.1 emergamps=20 bus1=12 bus2=13
New "Line.ln5775442-1" length=0.1055602 units=km linecode=3PH_H-397_ACSR397_ACSR397_ACSR2/0_ACSR Seasons=1 Ratings=[400,] normamps=0.1 emergamps=20 bus1=13 bus2=14
New "Line.cap_1a" length=0.001 units=none r1=1 r0=1 x1=1 x0=1 C1=0 C0=0 phases=1 bus1=14.1 bus2=15.1
New "Line.ln5513564-2" length=0.0451087 units=km linecode=3PH_H-397_ACSR397_ACSR397_ACSR2/0_ACSR Seasons=1 Ratings=[400,] normamps=0.1 emergamps=20 bus1=15 bus2=16
New "Line.ln5513564-1" length=0.02128046 units=km linecode=3PH_H-397_ACSR397_ACSR397_ACSR2/0_ACSR Seasons=1 Ratings=[400,] normamps=0.1 emergamps=20 bus1=16 bus2=17
New "Line.xj171_48332_sw" Switch=True r1=1 x1=1 r0=1 x0=1 length=0.001 bus1=17 bus2=18
New "Line.ln6321409-1" length=0.05568214 units=km linecode=3PH_H-397_ACSR397_ACSR397_ACSR2/0_ACSR Seasons=1 Ratings=[400,] normamps=0.1 emergamps=20 bus1=18 bus2=19
New "Line.ln5654466-1" length=0.07540477 units=km linecode=3PH_H-397_ACSR397_ACSR397_ACSR2/0_ACSR Seasons=1 Ratings=[400,] normamps=0.1 emergamps=20 bus1=19 bus2=20
New "Line.ln6291242-1" length=0.06659976 units=km linecode=3PH_H-397_ACSR397_ACSR397_ACSR2/0_ACSR Seasons=1 Ratings=[400,] normamps=0.1 emergamps=20 bus1=20 bus2=21
New "Line.ln5654472-1" length=0.05524293 units=km linecode=3PH_H-397_ACSR397_ACSR397_ACSR2/0_ACSR Seasons=1 Ratings=[400,] normamps=0.1 emergamps=20 bus1=21 bus2=22
New "Line.ln5594242-1" length=0.0591157 units=km linecode=3PH_H-397_ACSR397_ACSR397_ACSR2/0_ACSR Seasons=1 Ratings=[400,] normamps=0.1 emergamps=20 bus1=22 bus2=23
New "Line.ln6351519-1" length=0.1072102 units=km linecode=3PH_H-397_ACSR397_ACSR397_ACSR2/0_ACSR Seasons=1 Ratings=[400,] normamps=0.1 emergamps=20 bus1=23 bus2=24
New "Line.ln6261021-1" length=0.1243537 units=km linecode=3PH_H-397_ACSR397_ACSR397_ACSR2/0_ACSR Seasons=1 Ratings=[400,] normamps=0.1 emergamps=20 bus1=24 bus2=25
New "Line.ln5473440-1" length=0.08348992 units=km linecode=3PH_H-397_ACSR397_ACSR397_ACSR2/0_ACSR Seasons=1 Ratings=[400,] normamps=0.1 emergamps=20 bus1=25 bus2=26
New "Line.ln5866268-1" length=0.0671996 units=km linecode=3PH_H-397_ACSR397_ACSR397_ACSR2/0_ACSR Seasons=1 Ratings=[400,] normamps=0.1 emergamps=20 bus1=26 bus2=27
New "Line.ln6048634-1" length=0.04217383 units=km linecode=3PH_H-397_ACSR397_ACSR397_ACSR2/0_ACSR Seasons=1 Ratings=[400,] normamps=0.1 emergamps=20 bus1=27 bus2=28
New "Line.ln6504019-5" length=0.05014083 units=km linecode=3PH_H-397_ACSR397_ACSR397_ACSR2/0_ACSR Seasons=1 Ratings=[400,] normamps=0.1 emergamps=20 bus1=28 bus2=29
New "Line.ln6504020-2" length=0.2574444 units=km linecode=3PH_H-397_ACSR397_ACSR397_ACSR2/0_ACSR Seasons=1 Ratings=[400,] normamps=0.1 emergamps=20 bus1=29 bus2=34
New "Line.ln6504018-1" length=0.3076146 units=km linecode=3PH_H-397_ACSR397_ACSR397_ACSR2/0_ACSR Seasons=1 Ratings=[400,] normamps=0.1 emergamps=20 bus1=34 bus2=41
New "Line.ln5957526-1" length=0.04116818 units=km linecode=3PH_H-397_ACSR397_ACSR397_ACSR2/0_ACSR Seasons=1 Ratings=[400,] normamps=0.1 emergamps=20 bus1=41 bus2=45
New "Line.ln5715052-1" length=0.1050882 units=km linecode=3PH_H-397_ACSR397_ACSR397_ACSR2/0_ACSR Seasons=1 Ratings=[400,] normamps=0.1 emergamps=20 bus1=45 bus2=51
New "Line.ln5866308-1" length=0.04140121 units=km linecode=3PH_H-397_ACSR397_ACSR397_ACSR2/0_ACSR Seasons=1 Ratings=[400,] normamps=0.1 emergamps=20 bus1=51 bus2=52
New "Line.ln6412354-1" length=0.009347399 units=km linecode=3PH_H-397_ACSR397_ACSR397_ACSR2/0_ACSR Seasons=1 Ratings=[400,] normamps=0.1 emergamps=20 bus1=52 bus2=53
New "Line.ln6412355-1" length=0.06764679 units=km linecode=3PH_H-397_ACSR397_ACSR397_ACSR2/0_ACSR Seasons=1 Ratings=[400,] normamps=0.1 emergamps=20 bus1=53 bus2=54
New "Line.ln5745355-1" length=0.03456459 units=km linecode=3PH_H-397_ACSR397_ACSR397_ACSR2/0_ACSR Seasons=1 Ratings=[400,] normamps=0.1 emergamps=20 bus1=54 bus2=56
New "Line.ln5896834-1" length=0.09683365 units=km linecode=3PH_H-397_ACSR397_ACSR397_ACSR2/0_ACSR Seasons=1 Ratings=[400,] normamps=0.1 emergamps=20 bus1=56 bus2=57
New "Line.ln6023352-1" length=0.05295857 units=km linecode=3PH_H-397_ACSR397_ACSR397_ACSR2/0_ACSR Seasons=1 Ratings=[400,] normamps=0.1 emergamps=20 bus1=57 bus2=58
New "Line.l9407_48332_sw" Switch=True r1=1 x1=1 r0=1 x0=1 length=0.001 bus1=58 bus2=59
New "Line.ln6326450-1" length=0.01031774 units=km linecode=3PH_H-397_ACSR397_ACSR397_ACSR2/0_ACSR Seasons=1 Ratings=[400,] normamps=0.1 emergamps=20 bus1=59 bus2=60
New "Line.ln5992960-1" length=0.03375975 units=km linecode=3PH_H-397_ACSR397_ACSR397_ACSR2/0_ACSR Seasons=1 Ratings=[400,] normamps=0.1 emergamps=20 bus1=60 bus2=61
New "Line.ln5508630-1" length=0.005246984 units=km linecode=3PH_H-397_ACSR397_ACSR397_ACSR2/0_ACSR Seasons=1 Ratings=[400,] normamps=0.1 emergamps=20 bus1=61 bus2=62
New "Line.ln5805762-1" length=0.06777269 units=km linecode=3PH_H-397_ACSR397_ACSR397_ACSR2/0_ACSR Seasons=1 Ratings=[400,] normamps=0.1 emergamps=20 bus1=62 bus2=63
New "Line.ln6018336-1" length=0.04155912 units=km linecode=3PH_H-397_ACSR397_ACSR397_ACSR2/0_ACSR Seasons=1 Ratings=[400,] normamps=0.1 emergamps=20 bus1=63 bus2=64
New "Line.ln5563942-4" length=0.03113334 units=km linecode=3PH_H-397_ACSR397_ACSR397_ACSR2/0_ACSR Seasons=1 Ratings=[400,] normamps=0.1 emergamps=20 bus1=64 bus2=65
New "Line.2002200004868472_sw" Switch=True r1=1 x1=1 r0=1 x0=1 length=0.001 bus1=65 bus2=66
New "Line.cap_2a" length=0.001 units=none r1=1 r0=1 x1=1 x0=1 C1=0 C0=0 phases=1 bus1=66.1 bus2=67.1
New "Line.ln5563942-5" length=0.005259517 units=km linecode=3PH_H-397_ACSR397_ACSR397_ACSR2/0_ACSR Seasons=1 Ratings=[400,] normamps=0.1 emergamps=20 bus1=67 bus2=68
New "Line.ln5563942-3" length=0.03974841 units=km linecode=3PH_H-397_ACSR397_ACSR397_ACSR2/0_ACSR Seasons=1 Ratings=[400,] normamps=0.1 emergamps=20 bus1=68 bus2=69
New "Line.ln5896833-1" length=0.09739563 units=km linecode=3PH_H-397_ACSR397_ACSR397_ACSR2/0_ACSR Seasons=1 Ratings=[400,] normamps=0.1 emergamps=20 bus1=69 bus2=70
New "Line.ln5805761-1" length=0.05134039 units=km linecode=3PH_H-397_ACSR397_ACSR397_ACSR4_WPAL Seasons=1 Ratings=[400,] normamps=0.1 emergamps=20 bus1=70 bus2=71
New "Line.ln5799561-1" length=0.110589 units=km linecode=3PH_H-397_ACSR397_ACSR397_ACSR2/0_ACSR Seasons=1 Ratings=[400,] normamps=0.1 emergamps=20 bus1=71 bus2=73
New "Line.ln5799561-2" length=0.09212063 units=km linecode=3PH_H-397_ACSR397_ACSR397_ACSR2/0_ACSR Seasons=1 Ratings=[400,] normamps=0.1 emergamps=20 bus1=73 bus2=79
New "Line.a8611_48332_sw" Switch=True r1=1 x1=1 r0=1 x0=1 length=0.001 bus1=79 bus2=80
New "Line.ln5594236-1" length=0.06240823 units=km linecode=3PH_H-397_ACSR397_ACSR397_ACSR2/0_ACSR Seasons=1 Ratings=[400,] normamps=0.1 emergamps=20 bus1=80 bus2=82
New "Line.ln5503575-1" length=0.07299226 units=km linecode=3PH_H-397_ACSR397_ACSR397_ACSR2/0_ACSR Seasons=1 Ratings=[400,] normamps=0.1 emergamps=20 bus1=82 bus2=84
New "Line.ln6018331-1" length=0.0670797 units=km linecode=3PH_H-397_ACSR397_ACSR397_ACSR2/0_ACSR Seasons=1 Ratings=[400,] normamps=0.1 emergamps=20 bus1=84 bus2=86
New "Line.ln6291244-1" length=0.1306013 units=km linecode=3PH_H-397_ACSR397_ACSR397_ACSR2/0_WPAL Seasons=1 Ratings=[400,] normamps=0.1 emergamps=20 bus1=86 bus2=90
New "Line.ln5473436-1" length=0.0003048 units=km linecode=3PH_H-397_ACSR397_ACSR397_ACSR2/0_ACSR Seasons=1 Ratings=[400,] normamps=0.1 emergamps=20 bus1=90 bus2=91
New "Line.ln5473436-2" length=0.06085092 units=km linecode=3PH_H-397_ACSR397_ACSR397_ACSR2/0_ACSR Seasons=1 Ratings=[400,] normamps=0.1 emergamps=20 bus1=91 bus2=93
New "Line.ln5896825-1" length=0.05352371 units=km linecode=3PH_H-397_ACSR397_ACSR397_ACSR2/0_ACSR Seasons=1 Ratings=[400,] normamps=0.1 emergamps=20 bus1=93 bus2=95
New "Line.ln6351510-1" length=0.001633431 units=km linecode=3PH_H-4_ACSR4_ACSR4_ACSR4_ACSR Seasons=1 Ratings=[400,] normamps=0.1 emergamps=20 bus1=95 bus2=96
New "Line.ln5654471-1" length=0.07816807 units=km linecode=3PH_H-397_ACSR397_ACSR397_ACSR2/0_ACSR Seasons=1 Ratings=[400,] normamps=0.1 emergamps=20 bus1=96 bus2=98
New "Line.ln5745348-1" length=0.07498476 units=km linecode=3PH_H-397_ACSR397_ACSR397_ACSR2/0_ACSR Seasons=1 Ratings=[400,] normamps=0.1 emergamps=20 bus1=98 bus2=99
New "Line.ln5504876-1" length=0.06747348 units=km linecode=3PH_H-4_ACSR4_ACSR4_ACSR4_WPAL Seasons=1 Ratings=[400,] normamps=0.1 emergamps=20 bus1=99 bus2=100
New "Line.ln5928744-1" length=0.02792002 units=km linecode=3PH_H-4_ACSR4_ACSR4_ACSR4_WPAL Seasons=1 Ratings=[400,] normamps=0.1 emergamps=20 bus1=100 bus2=102
New "Line.ln5927423-1" length=0.1395564 units=km linecode=3PH_H-4_ACSR4_ACSR4_ACSR4_WPAL Seasons=1 Ratings=[400,] normamps=0.1 emergamps=20 bus1=102 bus2=106
New "Line.ln5684911-1" length=0.1474289 units=km linecode=3PH_H-4_ACSR4_ACSR4_ACSR4_ACSR Seasons=1 Ratings=[400,] normamps=0.1 emergamps=20 bus1=106 bus2=111
New "Line.ln5957494-1" length=0.3009221 units=km linecode=3PH_H-4_ACSR4_ACSR4_ACSR4_ACSR Seasons=1 Ratings=[400,] normamps=0.1 emergamps=20 bus1=111 bus2=124
New "Line.ln6200532-1" length=0.09315243 units=km linecode=3PH_H-397_ACSR397_ACSR397_ACSR2/0_ACSR Seasons=1 Ratings=[400,] normamps=0.1 emergamps=20 bus1=99 bus2=101
New "Line.ln5594239-1" length=0.08915953 units=km linecode=3PH_H-397_ACSR397_ACSR397_ACSR2/0_ACSR Seasons=1 Ratings=[400,] normamps=0.1 emergamps=20 bus1=101 bus2=104
New "Line.ln6078767-1" length=0.02929477 units=km linecode=3PH_H-397_ACSR397_ACSR397_ACSR2/0_ACSR Seasons=1 Ratings=[400,] normamps=0.1 emergamps=20 bus1=104 bus2=105
New "Line.ln5503576-1" length=0.06337631 units=km linecode=3PH_H-397_ACSR397_ACSR397_ACSR2/0_ACSR Seasons=1 Ratings=[400,] normamps=0.1 emergamps=20 bus1=105 bus2=107
New "Line.ln6200527-1" length=0.0845323 units=km linecode=3PH_H-397_ACSR397_ACSR397_ACSR2/0_ACSR Seasons=1 Ratings=[400,] normamps=0.1 emergamps=20 bus1=107 bus2=110
New "Line.ln6170293-1" length=0.05105121 units=km linecode=3PH_H-397_ACSR397_ACSR397_ACSR2/0_ACSR Seasons=1 Ratings=[400,] normamps=0.1 emergamps=20 bus1=110 bus2=114
New "Line.ln5745347-1" length=0.03999682 units=km linecode=3PH_H-397_ACSR397_ACSR397_ACSR2/0_ACSR Seasons=1 Ratings=[400,] normamps=0.1 emergamps=20 bus1=114 bus2=115
New "Line.ln5957493-1" length=0.09095299 units=km linecode=3PH_H-397_ACSR397_ACSR397_ACSR2/0_ACSR Seasons=1 Ratings=[400,] normamps=0.1 emergamps=20 bus1=115 bus2=118
New "Line.ln6078768-1" length=0.04200085 units=km linecode=3PH_H-397_ACSR397_ACSR397_ACSR2/0_ACSR Seasons=1 Ratings=[400,] normamps=0.1 emergamps=20 bus1=118 bus2=119
New "Line.ln6351511-1" length=0.06460124 units=km linecode=3PH_H-397_ACSR397_ACSR397_ACSR2/0_ACSR Seasons=1 Ratings=[400,] normamps=0.1 emergamps=20 bus1=119 bus2=121
New "Line.ln5958866-1" length=0.1593378 units=km linecode=3PH_H-397_ACSR397_ACSR397_ACSR2/0_ACSR Seasons=1 Ratings=[400,] normamps=0.1 emergamps=20 bus1=121 bus2=128
New "Line.a8645_48332_sw" Switch=True r1=1 x1=1 r0=1 x0=1 length=0.001 bus1=128 bus2=129
New "Line.ln6201850-1" length=0.08925905 units=km linecode=3PH_H-397_ACSR397_ACSR397_ACSR2/0_ACSR Seasons=1 Ratings=[400,] normamps=0.1 emergamps=20 bus1=129 bus2=131
New "Line.ln6291252-1" length=0.0758688 units=km linecode=3PH_H-397_ACSR397_ACSR397_ACSR2/0_ACSR Seasons=1 Ratings=[400,] normamps=0.1 emergamps=20 bus1=131 bus2=132
New "Line.ln6291252-2" length=0.04193955 units=km linecode=3PH_H-397_ACSR397_ACSR397_ACSR2/0_ACSR Seasons=1 Ratings=[400,] normamps=0.1 emergamps=20 bus1=132 bus2=136
New "Line.ln6018341-1" length=0.09468487 units=km linecode=3PH_H-397_ACSR397_ACSR397_ACSR2/0_ACSR Seasons=1 Ratings=[400,] normamps=0.1 emergamps=20 bus1=136 bus2=141
New "Line.ln6291253-1" length=0.07220285 units=km linecode=3PH_H-397_ACSR397_ACSR397_ACSR2/0_ACSR Seasons=1 Ratings=[400,] normamps=0.1 emergamps=20 bus1=141 bus2=143
New "Line.ln6170302-1" length=0.08882654 units=km linecode=3PH_H-397_ACSR397_ACSR397_ACSR2/0_ACSR Seasons=1 Ratings=[400,] normamps=0.1 emergamps=20 bus1=143 bus2=148
New "Line.ln6321427-1" length=0.09267141 units=km linecode=3PH_H-397_ACSR397_ACSR397_ACSR2/0_ACSR Seasons=1 Ratings=[400,] normamps=0.1 emergamps=20 bus1=148 bus2=153
New "Line.ln5531195-1" length=0.03926728 units=km linecode=3PH_H-397_ACSR397_ACSR397_ACSR2/0_ACSR Seasons=1 Ratings=[400,] normamps=0.1 emergamps=20 bus1=153 bus2=156
New "Line.ln6106511-1" length=0.08155228 units=km linecode=3PH_H-4_ACSR4_ACSR4_ACSR4_ACSR Seasons=1 Ratings=[400,] normamps=0.1 emergamps=20 bus1=156 bus2=159
New "Line.ln6351524-1" length=0.08015593 units=km linecode=3PH_H-4_ACSR4_ACSR4_ACSR4_WPAL Seasons=1 Ratings=[400,] normamps=0.1 emergamps=20 bus1=159 bus2=164
New "Line.ln6109158-1" length=0.08373852 units=km linecode=3PH_H-4_ACSR4_ACSR4_ACSR4_ACSR Seasons=1 Ratings=[400,] normamps=0.1 emergamps=20 bus1=164 bus2=168
New "Line.ln5473449-1" length=0.1017066 units=km linecode=3PH_H-4_ACSR4_ACSR4_ACSR4_WPAL Seasons=1 Ratings=[400,] normamps=0.1 emergamps=20 bus1=168 bus2=170
New "Line.ln6079946-1" length=0.1177636 units=km linecode=3PH_H-4_ACSR4_ACSR4_ACSR4_WPAL Seasons=1 Ratings=[400,] normamps=0.1 emergamps=20 bus1=170 bus2=178
New "Line.ln6256144-4" length=0.07100756 units=km linecode=3PH_H-4_ACSR4_ACSR4_ACSR4_WPAL Seasons=1 Ratings=[400,] normamps=0.1 emergamps=20 bus1=178 bus2=183
New "Line.ln6256144-3" length=0.08502586 units=km linecode=3PH_H-4_ACSR4_ACSR4_ACSR4_WPAL Seasons=1 Ratings=[400,] normamps=0.1 emergamps=20 bus1=183 bus2=187
New "Line.ln6256144-1" length=0.03917884 units=km linecode=3PH_H-4_ACSR4_ACSR4_ACSR4_WPAL Seasons=1 Ratings=[400,] normamps=0.1 emergamps=20 bus1=187 bus2=188
New "Line.ln5527400-1" length=0.005096697 units=km linecode=3PH_H-4_ACSR4_ACSR4_ACSR4_WPAL Seasons=1 Ratings=[400,] normamps=0.1 emergamps=20 bus1=188 bus2=189
New "Line.ln5955063-1" length=0.07929255 units=km linecode=3PH_H-4_ACSR4_ACSR4_ACSR4_ACSR Seasons=1 Ratings=[400,] normamps=0.1 emergamps=20 bus1=189 bus2=200
New "Line.ln6440069-1" length=0.06749109 units=km linecode=3PH_H-4_ACSR4_ACSR4_ACSR4_WPAL Seasons=1 Ratings=[400,] normamps=0.1 emergamps=20 bus1=200 bus2=204
New "Line.ln5623403-1" length=0.08771341 units=km linecode=3PH_H-4_ACSR4_ACSR4_ACSR4_ACSR Seasons=1 Ratings=[400,] normamps=0.1 emergamps=20 bus1=204 bus2=210
New "Line.ln5502533-1" length=0.1373578 units=km linecode=3PH_H-4_ACSR4_ACSR4_ACSR4_ACSR Seasons=1 Ratings=[400,] normamps=0.1 emergamps=20 bus1=210 bus2=220
New "Line.ln6259995-1" length=0.1105514 units=km linecode=3PH_H-4_ACSR4_ACSR4_ACSR2_WPAL Seasons=1 Ratings=[400,] normamps=0.1 emergamps=20 bus1=220 bus2=226
New "Line.ln6350541-1" length=0.1078279 units=km linecode=3PH_H-4_ACSR4_ACSR4_ACSR4_WPAL Seasons=1 Ratings=[400,] normamps=0.1 emergamps=20 bus1=226 bus2=228
New "Line.ln5502531-1" length=0.0382469 units=km linecode=3PH_H-4_ACSR4_ACSR4_ACSR4_WPAL Seasons=1 Ratings=[400,] normamps=0.1 emergamps=20 bus1=228 bus2=229
New "Line.ln6290212-1" length=0.09576997 units=km linecode=3PH_H-4_ACSR4_ACSR4_ACSR4_WPAL Seasons=1 Ratings=[400,] normamps=0.1 emergamps=20 bus1=229 bus2=230
New "Line.ln6138608-3" length=0.08551689 units=km linecode=3PH_H-4_ACSR4_ACSR4_ACSR4_WPAL Seasons=1 Ratings=[400,] normamps=0.1 emergamps=20 bus1=230 bus2=231
New "Line.ln4586093_sw" Switch=True r1=1 x1=1 r0=1 x0=1 length=0.001 bus1=231 bus2=232
New "Line.ln6138608-2" length=0.004597065 units=km linecode=3PH_H-4_ACSR4_ACSR4_ACSR4_WPAL Seasons=1 Ratings=[400,] normamps=0.1 emergamps=20 bus1=232 bus2=234
New "Line.ln5502532-1" length=0.005820451 units=km linecode=3PH_H-4_ACSR4_ACSR4_ACSR4_WPAL Seasons=1 Ratings=[400,] normamps=0.1 emergamps=20 bus1=233 bus2=235
New "Line.ln5472360-1" length=0.05793432 units=km linecode=3PH_H-4_ACSR4_ACSR4_ACSR4_WPAL Seasons=1 Ratings=[400,] normamps=0.1 emergamps=20 bus1=235 bus2=237
New "Line.ln5683823-1" length=0.078884 units=km linecode=3PH_H-4_ACSR4_ACSR4_ACSR4_WPAL Seasons=1 Ratings=[400,] normamps=0.1 emergamps=20 bus1=237 bus2=238
New "Line.ln5835143-1" length=0.1617083 units=km linecode=3PH_H-4_ACSR4_ACSR4_ACSR4_WPAL Seasons=1 Ratings=[400,] normamps=0.1 emergamps=20 bus1=238 bus2=241
New "Line.ln5593234-1" length=0.09150361 units=km linecode=3PH_H-4_ACSR4_ACSR4_ACSR4_WPAL Seasons=1 Ratings=[400,] normamps=0.1 emergamps=20 bus1=241 bus2=243
New "Line.ln5863823-1" length=0.03929099 units=km linecode=3PH_H-4_WPAL4_WPAL4_WPAL4_WPAL Seasons=1 Ratings=[400,] normamps=0.1 emergamps=20 bus1=243 bus2=244
New "Line.ln5501088-1" length=0.07228537 units=km linecode=3PH_H-4_WPAL4_WPAL4_WPAL4_WPAL Seasons=1 Ratings=[400,] normamps=0.1 emergamps=20 bus1=244 bus2=246
New "Line.ln6108136-1" length=0.02582866 units=km linecode=3PH_H-4_WPAL4_WPAL4_WPAL4_WPAL Seasons=1 Ratings=[400,] normamps=0.1 emergamps=20 bus1=246 bus2=247
New "Line.ln6017299-1" length=0.06387652 units=km linecode=3PH_H-4_WPAL4_WPAL4_WPAL4_ACSR Seasons=1 Ratings=[400,] normamps=0.1 emergamps=20 bus1=247 bus2=249
New "Line.ln6413567-2" length=0.04358614 units=km linecode=3PH_H-4_ACSR4_ACSR4_ACSR4_WPAL Seasons=1 Ratings=[400,] normamps=0.1 emergamps=20 bus1=249 bus2=250
New "Line.ln6413567-3" length=0.01496679 units=km linecode=3PH_H-4_ACSR4_ACSR4_ACSR4_WPAL Seasons=1 Ratings=[400,] normamps=0.1 emergamps=20 bus1=250 bus2=251
New "Line.x8223_48332_sw" Switch=True r1=1 x1=1 r0=1 x0=1 length=0.001 bus1=251 bus2=252
New "Line.ln5806919-1" length=0.09299546 units=km linecode=3PH_H-4_ACSR4_ACSR4_ACSR4_WPAL Seasons=1 Ratings=[400,] normamps=0.1 emergamps=20 bus1=252 bus2=255
New "Line.ln5804791-1" length=0.07335584 units=km linecode=3PH_H-4_ACSR4_ACSR4_ACSR4_WPAL Seasons=1 Ratings=[400,] normamps=0.1 emergamps=20 bus1=255 bus2=257
New "Line.ln5593222-1" length=0.1061942 units=km linecode=3PH_H-4_ACSR4_ACSR4_ACSR4_ACSR Seasons=1 Ratings=[400,] normamps=0.1 emergamps=20 bus1=257 bus2=260
New "Line.ln5956463-1" length=0.09179754 units=km linecode=3PH_H-4_ACSR4_ACSR4_ACSR4_ACSR Seasons=1 Ratings=[400,] normamps=0.1 emergamps=20 bus1=260 bus2=262
New "Line.ln6320329-1" length=0.05989324 units=km linecode=3PH_H-4_ACSR4_ACSR4_ACSR4_WPAL Seasons=1 Ratings=[400,] normamps=0.1 emergamps=20 bus1=262 bus2=264
New "Line.ln5774453-1" length=0.124963 units=km linecode=3PH_H-4_ACSR4_ACSR4_ACSR4_ACSR Seasons=1 Ratings=[400,] normamps=0.1 emergamps=20 bus1=264 bus2=268
New "Line.ln5532743-1" length=0.1005498 units=km linecode=3PH_H-4_ACSR4_ACSR4_ACSR4_ACSR Seasons=1 Ratings=[400,] normamps=0.1 emergamps=20 bus1=268 bus2=271
New "Line.ln6047561-1" length=0.1777074 units=km linecode=3PH_H-4_ACSR4_ACSR4_ACSR4_ACSR Seasons=1 Ratings=[400,] normamps=0.1 emergamps=20 bus1=271 bus2=277
New "Line.ln6229807-1" length=0.1197047 units=km linecode=3PH_H-4_ACSR4_ACSR4_ACSR4_WPAL Seasons=1 Ratings=[400,] normamps=0.1 emergamps=20 bus1=277 bus2=284
New "Line.ln5593239-1" length=0.03489369 units=km linecode=3PH_H-4_ACSR4_ACSR4_ACSR4_WPAL Seasons=1 Ratings=[400,] normamps=0.1 emergamps=20 bus1=284 bus2=288
New "Line.ln5804802-1" length=0.07517677 units=km linecode=3PH_H-4_ACSR4_ACSR4_ACSR4_WPAL Seasons=1 Ratings=[400,] normamps=0.1 emergamps=20 bus1=288 bus2=292
New "Line.ln6138614-1" length=0.07099026 units=km linecode=3PH_H-4_WPAL4_WPAL4_WPAL4_WPAL Seasons=1 Ratings=[400,] normamps=0.1 emergamps=20 bus1=292 bus2=294
New "Line.ln6199530-1" length=0.03786623 units=km linecode=3PH_H-4_ACSR4_ACSR4_ACSR4_ACSR Seasons=1 Ratings=[400,] normamps=0.1 emergamps=20 bus1=294 bus2=296
New "Line.ln6199527-1" length=0.07126449 units=km linecode=3PH_H-4_ACSR4_ACSR4_ACSR4_ACSR Seasons=1 Ratings=[400,] normamps=0.1 emergamps=20 bus1=296 bus2=300
New "Line.ln5683831-1" length=0.06335789 units=km linecode=3PH_H-4_ACSR4_ACSR4_ACSR4_ACSR Seasons=1 Ratings=[400,] normamps=0.1 emergamps=20 bus1=300 bus2=302
New "Line.ln5472369-1" length=0.0464913 units=km linecode=3PH_H-4_WPAL4_WPAL4_WPAL4_ACSR Seasons=1 Ratings=[400,] normamps=0.1 emergamps=20 bus1=302 bus2=307
New "Line.ln5865248-1" length=0.04314574 units=km linecode=3PH_H-4_WPAL4_WPAL4_WPAL4_ACSR Seasons=1 Ratings=[400,] normamps=0.1 emergamps=20 bus1=307 bus2=312
New "Line.ln6047584-1" length=0.05462726 units=km linecode=3PH_H-4_WPAL4_WPAL4_WPAL4_ACSR Seasons=1 Ratings=[400,] normamps=0.1 emergamps=20 bus1=312 bus2=315
New "Line.ln6047583-1" length=0.07220793 units=km linecode=3PH_H-4_WPAL4_WPAL4_WPAL4_ACSR Seasons=1 Ratings=[400,] normamps=0.1 emergamps=20 bus1=315 bus2=321
New "Line.ln5472370-1" length=0.08287784 units=km linecode=3PH_H-4_ACSR4_ACSR4_ACSR4_ACSR Seasons=1 Ratings=[400,] normamps=0.1 emergamps=20 bus1=321 bus2=324
New "Line.ln5926308-3" length=0.03434426 units=km linecode=3PH_H-4_ACSR4_ACSR4_ACSR4_ACSR Seasons=1 Ratings=[400,] normamps=0.1 emergamps=20 bus1=324 bus2=327
New "Line.ln4625696_sw" Switch=True r1=1 x1=1 r0=1 x0=1 length=0.001 bus1=327 bus2=328
New "Line.ln5926308-2" length=0.03394498 units=km linecode=3PH_H-4_ACSR4_ACSR4_ACSR4_ACSR Seasons=1 Ratings=[400,] normamps=0.1 emergamps=20 bus1=328 bus2=329
New "Line.ln6350546-1" length=0.009183718 units=km linecode=3PH_H-4_ACSR4_ACSR4_ACSR4_ACSR Seasons=1 Ratings=[400,] normamps=0.1 emergamps=20 bus1=329 bus2=330
New "Line.ln5986935-1" length=0.09259677 units=km linecode=3PH_H-4_ACSR4_ACSR4_ACSR4_WPAL Seasons=1 Ratings=[400,] normamps=0.1 emergamps=20 bus1=330 bus2=333
New "Line.ln5744341-1" length=0.0435721 units=km linecode=3PH_H-4_ACSR4_ACSR4_ACSR4_ACSR Seasons=1 Ratings=[400,] normamps=0.1 emergamps=20 bus1=333 bus2=335
New "Line.ln5714080-1" length=0.0512085 units=km linecode=3PH_H-4_ACSR4_ACSR4_ACSR4_WPAL Seasons=1 Ratings=[400,] normamps=0.1 emergamps=20 bus1=335 bus2=337
New "Line.ln5593253-1" length=0.0146964 units=km linecode=3PH_H-4_ACSR4_ACSR4_ACSR4_WPAL Seasons=1 Ratings=[400,] normamps=0.1 emergamps=20 bus1=337 bus2=339
New "Line.ln6199560-1" length=0.1008807 units=km linecode=3PH_H-4_ACSR4_ACSR4_ACSR4_WPAL Seasons=1 Ratings=[400,] normamps=0.1 emergamps=20 bus1=339 bus2=350
New "Line.ln6320367-3" length=0.01516922 units=km linecode=3PH_H-4_ACSR4_ACSR4_ACSR4_WPAL Seasons=1 Ratings=[400,] normamps=0.1 emergamps=20 bus1=350 bus2=351
New "Line.ln6320367-2" length=0.02515208 units=km linecode=3PH_H-4_ACSR4_ACSR4_ACSR4_WPAL Seasons=1 Ratings=[400,] normamps=0.1 emergamps=20 bus1=351 bus2=353
New "Line.ln6049825-1" length=0.004571141 units=km linecode=3PH_H-4_ACSR4_ACSR4_ACSR4_WPAL Seasons=1 Ratings=[400,] normamps=0.1 emergamps=20 bus1=353 bus2=354
New "Line.l5523_48332_sw" Switch=True r1=1 x1=1 r0=1 x0=1 length=0.001 bus1=354 bus2=355
New "Line.ln6171508-1" length=0.06395981 units=km linecode=3PH_H-4_ACSR4_ACSR4_ACSR4_WPAL Seasons=1 Ratings=[400,] normamps=0.1 emergamps=20 bus1=355 bus2=357
New "Line.ln6350577-1" length=0.1291806 units=km linecode=3PH_H-4_ACSR4_ACSR4_ACSR4_WPAL Seasons=1 Ratings=[400,] normamps=0.1 emergamps=20 bus1=357 bus2=360
New "Line.ln6380847-1" length=0.09931373 units=km linecode=3PH_H-4_ACSR4_ACSR4_ACSR4_ACSR Seasons=1 Ratings=[400,] normamps=0.1 emergamps=20 bus1=360 bus2=362
New "Line.ln5865272-1" length=0.07220582 units=km linecode=3PH_H-4_ACSR4_ACSR4_ACSR4_ACSR Seasons=1 Ratings=[400,] normamps=0.1 emergamps=20 bus1=362 bus2=369
New "Line.ln5774497-1" length=0.06888704 units=km linecode=3PH_H-4_ACSR4_ACSR4_ACSR4_ACSR Seasons=1 Ratings=[400,] normamps=0.1 emergamps=20 bus1=369 bus2=370
New "Line.ln5804836-1" length=0.06285215 units=km linecode=3PH_H-4_ACSR4_ACSR4_ACSR4_ACSR Seasons=1 Ratings=[400,] normamps=0.1 emergamps=20 bus1=370 bus2=376
New "Line.ln6379462-1" length=0.04498975 units=km linecode=3PH_H-4_ACSR4_ACSR4_ACSR4_ACSR Seasons=1 Ratings=[400,] normamps=0.1 emergamps=20 bus1=376 bus2=379
New "Line.ln6379462-2" length=0.07501114 units=km linecode=3PH_H-4_ACSR4_ACSR4_ACSR4_ACSR Seasons=1 Ratings=[400,] normamps=0.1 emergamps=20 bus1=379 bus2=383
New "Line.ln6379462-3" length=0.04834725 units=km linecode=3PH_H-4_ACSR4_ACSR4_ACSR4_ACSR Seasons=1 Ratings=[400,] normamps=0.1 emergamps=20 bus1=383 bus2=386
New "Line.ln6047605-1" length=0.0200942 units=km linecode=3PH_H-4_ACSR4_ACSR4_ACSR4_ACSR Seasons=1 Ratings=[400,] normamps=0.1 emergamps=20 bus1=386 bus2=388
New "Line.ln6229835-1" length=0.08860452 units=km linecode=3PH_H-4_ACSR4_ACSR4_ACSR4_WPAL Seasons=1 Ratings=[400,] normamps=0.1 emergamps=20 bus1=388 bus2=393
New "Line.ln6320368-1" length=0.06420695 units=km linecode=3PH_H-4_ACSR4_ACSR4_ACSR4_ACSR Seasons=1 Ratings=[400,] normamps=0.1 emergamps=20 bus1=393 bus2=397
New "Line.ln5956503-1" length=0.08398142 units=km linecode=3PH_H-4_ACSR4_ACSR4_ACSR4_ACSR Seasons=1 Ratings=[400,] normamps=0.1 emergamps=20 bus1=397 bus2=407
New "Line.ln5532791-1" length=0.02959428 units=km linecode=3PH_H-4_ACSR4_ACSR4_ACSR4_ACSR Seasons=1 Ratings=[400,] normamps=0.1 emergamps=20 bus1=407 bus2=410
New "Line.ln5895818-1" length=0.03874359 units=km linecode=3PH_H-4_ACSR4_ACSR4_ACSR4_ACSR Seasons=1 Ratings=[400,] normamps=0.1 emergamps=20 bus1=410 bus2=414
New "Line.ln5865271-1" length=0.07183827 units=km linecode=3PH_H-4_ACSR4_ACSR4_ACSR4_ACSR Seasons=1 Ratings=[400,] normamps=0.1 emergamps=20 bus1=414 bus2=420
New "Line.ln5774496-1" length=0.0859726 units=km linecode=3PH_H-4_ACSR4_ACSR4_ACSR4_ACSR Seasons=1 Ratings=[400,] normamps=0.1 emergamps=20 bus1=420 bus2=428
New "Line.ln5623408-1" length=0.05094784 units=km linecode=3PH_H-4_ACSR4_ACSR4_ACSR4_WPAL Seasons=1 Ratings=[400,] normamps=0.1 emergamps=20 bus1=428 bus2=434
New "Line.ln5683830-1" length=0.06856746 units=km linecode=3PH_H-4_WPAL4_WPAL4_WPAL4_WPAL Seasons=1 Ratings=[400,] normamps=0.1 emergamps=20 bus1=434 bus2=439
New "Line.ln6017302-1" length=0.05315063 units=km linecode=3PH_H-4_WPAL4_WPAL4_WPAL4_ACSR Seasons=1 Ratings=[400,] normamps=0.1 emergamps=20 bus1=439 bus2=445
New "Line.ln6198013-2" length=0.04612085 units=km linecode=3PH_H-4_WPAL4_WPAL4_WPAL4_ACSR Seasons=1 Ratings=[400,] normamps=0.1 emergamps=20 bus1=445 bus2=451
New "Line.ln6198013-1" length=0.05676418 units=km linecode=3PH_H-4_WPAL4_WPAL4_WPAL4_ACSR Seasons=1 Ratings=[400,] normamps=0.1 emergamps=20 bus1=451 bus2=454
New "Line.ln5835149-1" length=0.03605911 units=km linecode=3PH_H-4_ACSR4_ACSR4_ACSR4_ACSR Seasons=1 Ratings=[400,] normamps=0.1 emergamps=20 bus1=454 bus2=460
New "Line.ln5895787-1" length=0.03416764 units=km linecode=3PH_H-4_ACSR4_ACSR4_ACSR4_ACSR Seasons=1 Ratings=[400,] normamps=0.1 emergamps=20 bus1=460 bus2=463
New "Line.ln6262266-12" length=0.004178292 units=km linecode=3PH_H-4_ACSR4_ACSR4_ACSR4_ACSR Seasons=1 Ratings=[400,] normamps=0.1 emergamps=20 bus1=362 bus2=363
New "Line.ln6262266-13" length=0.005747939 units=km linecode=3PH_H-4_ACSR4_ACSR4_ACSR4_ACSR Seasons=1 Ratings=[400,] normamps=0.1 emergamps=20 bus1=363 bus2=364
New "Line.ln5686080-1" length=0.00800984 units=km linecode=3PH_H-4_ACSR4_ACSR4_ACSR4_ACSR Seasons=1 Ratings=[400,] normamps=0.1 emergamps=20 bus1=364 bus2=365
New "Line.ln293471_sw" Switch=True r1=1 x1=1 r0=1 x0=1 length=0.001 bus1=365 bus2=366
New "Line.293471" length=0.03048 units=km linecode=3PH_H-4_ACSR4_ACSR4_ACSR4_ACSR Seasons=1 Ratings=[400,] normamps=0.1 emergamps=20 bus1=366 bus2=368
New "Line.ln5604685-1" length=0.07406675 units=km linecode=3PH_H-2_ACSR2_ACSR2_ACSR2_ACSR Seasons=1 Ratings=[400,] normamps=0.1 emergamps=20 bus1=210 bus2=215
New "Line.ln6028890-1" length=0.03596587 units=km linecode=3PH_H-2_ACSR2_ACSR2_ACSR2_ACSR Seasons=1 Ratings=[400,] normamps=0.1 emergamps=20 bus1=215 bus2=217
New "Line.ln5604685-2" length=0.07406597 units=km linecode=3PH_H-2_ACSR2_ACSR2_ACSR2_ACSR Seasons=1 Ratings=[400,] normamps=0.1 emergamps=20 bus1=215 bus2=223
New "Line.ln6381853-1" length=0.07469317 units=km linecode=3PH_H-397_ACSR397_ACSR397_ACSR2/0_ACSR Seasons=1 Ratings=[400,] normamps=0.1 emergamps=20 bus1=71 bus2=72
New "Line.ln6413954-1" length=0.06026552 units=km linecode=3PH_H-397_ACSR397_ACSR397_ACSR2/0_ACSR Seasons=1 Ratings=[400,] normamps=0.1 emergamps=20 bus1=72 bus2=74
New "Line.ln5558790-1" length=0.01385607 units=km linecode=3PH_H-397_ACSR397_ACSR397_ACSR2/0_ACSR Seasons=1 Ratings=[400,] normamps=0.1 emergamps=20 bus1=74 bus2=75
New "Line.ln5861005-2" length=0.006140917 units=km linecode=3PH_H-397_ACSR397_ACSR397_ACSR2/0_ACSR Seasons=1 Ratings=[400,] normamps=0.1 emergamps=20 bus1=75 bus2=76
New "Line.ln3693186_sw" Switch=True r1=1 x1=1 r0=1 x0=1 length=0.001 bus1=76 bus2=77
New "Line.ln5861005-3" length=0.01412775 units=km linecode=3PH_H-397_ACSR397_ACSR397_ACSR2/0_ACSR Seasons=1 Ratings=[400,] normamps=0.1 emergamps=20 bus1=77 bus2=78
New "Line.ln6321420-1" length=0.05802805 units=km linecode=3PH_H-397_ACSR397_ACSR397_ACSR2/0_ACSR Seasons=1 Ratings=[400,] normamps=0.1 emergamps=20 bus1=78 bus2=81
New "Line.ln6139646-1" length=0.05058034 units=km linecode=3PH_H-397_ACSR397_ACSR397_ACSR2/0_ACSR Seasons=1 Ratings=[400,] normamps=0.1 emergamps=20 bus1=81 bus2=83
New "Line.ln5836178-1" length=0.06715174 units=km linecode=3PH_H-397_ACSR397_ACSR397_ACSR2/0_ACSR Seasons=1 Ratings=[400,] normamps=0.1 emergamps=20 bus1=83 bus2=85
New "Line.ln5533786-1" length=0.0615502 units=km linecode=3PH_H-397_ACSR397_ACSR397_ACSR2/0_ACSR Seasons=1 Ratings=[400,] normamps=0.1 emergamps=20 bus1=85 bus2=87
New "Line.ln6381844-1" length=0.07053731 units=km linecode=3PH_H-397_ACSR397_ACSR397_ACSR2/0_ACSR Seasons=1 Ratings=[400,] normamps=0.1 emergamps=20 bus1=87 bus2=88
New "Line.ln6048626-1" length=0.05396142 units=km linecode=3PH_H-397_ACSR397_ACSR397_ACSR2/0_ACSR Seasons=1 Ratings=[400,] normamps=0.1 emergamps=20 bus1=88 bus2=89
New "Line.ln5715002-1" length=0.02984987 units=km linecode=3PH_H-397_ACSR397_ACSR397_ACSR2/0_ACSR Seasons=1 Ratings=[400,] normamps=0.1 emergamps=20 bus1=89 bus2=92
New "Line.ln6139641-1" length=0.03815269 units=km linecode=3PH_H-397_ACSR397_ACSR397_ACSR2/0_ACSR Seasons=1 Ratings=[400,] normamps=0.1 emergamps=20 bus1=92 bus2=94
New "Line.ln5987954-1" length=0.05495901 units=km linecode=3PH_H-397_ACSR397_ACSR397_ACSR2/0_ACSR Seasons=1 Ratings=[400,] normamps=0.1 emergamps=20 bus1=94 bus2=97
New "Line.ln6318761-1" length=0.2622579 units=km linecode=3PH_H-397_ACSR397_ACSR397_ACSR2/0_ACSR Seasons=1 Ratings=[400,] normamps=0.1 emergamps=20 bus1=97 bus2=103
New "Line.ln6348948-1" length=0.1734939 units=km linecode=3PH_H-397_ACSR397_ACSR397_ACSR2/0_ACSR Seasons=1 Ratings=[400,] normamps=0.1 emergamps=20 bus1=103 bus2=108
New "Line.ln5561442-1" length=0.05871119 units=km linecode=3PH_H-397_ACSR397_ACSR397_ACSR2/0_ACSR Seasons=1 Ratings=[400,] normamps=0.1 emergamps=20 bus1=108 bus2=109
New "Line.ln5561442-2" length=0.05392748 units=km linecode=3PH_H-397_ACSR397_ACSR397_ACSR2/0_ACSR Seasons=1 Ratings=[400,] normamps=0.1 emergamps=20 bus1=109 bus2=112
New "Line.ln6137009-2" length=0.01276908 units=km linecode=3PH_H-397_ACSR397_ACSR397_ACSR2/0_ACSR Seasons=1 Ratings=[400,] normamps=0.1 emergamps=20 bus1=112 bus2=113
...
