DSS_Simulator/ieee650v2_Renamed_withpv/m1/Loads.dss
New "Load.t226195333c" phases=1 status=variable kW=4.11981102502429 kvar=1.10365017200327 kV=7.208 bus1=9.3
New "Load.t5223658a" phases=1 status=variable kW=1.78988276617982 kvar=0.481376213557051 kV=7.208 bus1=14.1
New "Load.ln5958865-1" phases=1 status=variable kW=259.016185127587 kvar=69.6719196058374 kV=7.208 bus1=19.3
New "Load.ln6198133-1" phases=1 status=variable kW=-5.32611593717647E-011 kvar=-0.00741374509987276 kV=7.208 bus1=19.3
New "Load.ln5686244-1" phases=1 status=variable kW=39.6906400997102 kvar=10.6000689040858 kV=7.208 bus1=21.1
New "Load.ln6381855-1" phases=1 status=variable kW=6.18120499080695 kvar=1.63621819464577 kV=7.208 bus1=23.3
New "Load.t21386877a" phases=1 status=variable kW=5.38950534590059 kvar=1.44707339986155 kV=7.208 bus1=25.1
New "Load.t0107636a" phases=1 status=variable kW=9.00256658246198 kvar=2.41484765947738 kV=7.208 bus1=26.1
New "Load.ln6140925-1" phases=1 status=variable kW=43.3320393521913 kvar=11.4596146008243 kV=7.208 bus1=41.3
New "Load.ln5988007-1" phases=1 status=variable kW=18.0930509419269 kvar=4.83205302810318 kV=7.208 bus1=45.1
New "Load.t5260630b" phases=1 status=variable kW=5.91789664121929 kvar=1.58380415894778 kV=7.208 bus1=51.2
New "Load.ln5594243-1" phases=1 status=variable kW=55.85857238378 kvar=14.8360024883867 kV=7.208 bus1=52.1
New "Load.t5260631a" phases=1 status=variable kW=5.3897986597184 kvar=1.44538698379939 kV=7.208 bus1=54.1
New "Load.ln5589096-1" phases=1 status=variable kW=9.00371564375721 kvar=2.40034226474062 kV=7.208 bus1=56.1
New "Load.t5260634a" phases=1 status=variable kW=5.38984061378366 kvar=1.44520140093648 kV=7.208 bus1=57.1
New "Load.t5260637c" phases=1 status=variable kW=4.11993627055345 kvar=1.10312354616907 kV=7.208 bus1=62.3
New "Load.ln6232159-1" phases=1 status=variable kW=3.59312422768168 kvar=0.954930158092264 kV=7.208 bus1=63.1
New "Load.ln5989329-1" phases=1 status=variable kW=26.836292238193 kvar=7.15562048604997 kV=7.208 bus1=64.3
New "Load.t5260641b" phases=1 status=variable kW=14.856369514815 kvar=3.96576379915803 kV=7.208 bus1=70.2
New "Load.ln5473439-1" phases=1 status=variable kW=23.4896080174196 kvar=6.25200868370601 kV=7.208 bus1=71.1
New "Load.ln5746705-1" phases=1 status=variable kW=9.00439857357263 kvar=2.40315373918017 kV=7.208 bus1=71.1
New "Load.t225700953a" phases=1 status=variable kW=5.39000637819629 kvar=1.44455160675543 kV=7.208 bus1=73.1
New "Load.ln5866260-1" phases=1 status=variable kW=15.5367962533787 kvar=4.14288173584814 kV=7.208 bus1=82.3
New "Load.ln6292614-1" phases=1 status=variable kW=37.1398898145076 kvar=9.89243852396872 kV=7.208 bus1=84.3
New "Load.t5260515a" phases=1 status=variable kW=9.00442472623441 kvar=2.41103125872508 kV=7.208 bus1=86.1
New "Load.t5260514c" phases=1 status=variable kW=6.18133522751721 kvar=1.65406797004931 kV=7.208 bus1=91.3
New "Load.t21389307c" phases=1 status=variable kW=10.3272241038452 kvar=2.76081254711999 kV=7.208 bus1=93.3
New "Load.t5260527b" phases=1 status=variable kW=9.88169637600978 kvar=2.64048386708442 kV=7.208 bus1=96.2
New "Load.ln5625715-1" phases=1 status=variable kW=13.8108447733113 kvar=3.6034102190426 kV=7.208 bus1=98.2
New "Load.ln5684859-1" phases=1 status=variable kW=9.8824453061529 kvar=2.63295792569768 kV=7.208 bus1=98.2
New "Load.t5260476a" phases=1 status=variable kW=5.39001798991897 kvar=1.44450291638289 kV=7.208 bus1=102.1
New "Load.ln6291288-3" phases=1 status=variable kW=45.0852351361517 kvar=12.0275647695185 kV=7.208 bus1=106.1
New "Load.ln6048681-1" phases=1 status=variable kW=5.3896494408897 kvar=1.44209803995859 kV=7.208 bus1=106.1
New "Load.ln5894225-1" phases=1 status=variable kW=35.5708469823889 kvar=9.38522647615992 kV=7.208 bus1=124.2
New "Load.t5260479a" phases=1 status=variable kW=13.5350269889603 kvar=3.6200507467237 kV=7.208 bus1=101.1
New "Load.t5260480c" phases=1 status=variable kW=10.3273547245224 kvar=2.76067802874256 kV=7.208 bus1=104.3
New "Load.t5260481c" phases=1 status=variable kW=10.3273846008624 kvar=2.76064759195236 kV=7.208 bus1=107.3
New "Load.t5260484a" phases=1 status=variable kW=5.39001129351567 kvar=1.44451993273662 kV=7.208 bus1=110.1
New "Load.ln6171683-1" phases=1 status=variable kW=18.9261272732306 kvar=5.03286478598545 kV=7.208 bus1=114.1
New "Load.ln7064337-2" phases=1 status=variable kW=15.5375837856191 kvar=4.14079546909541 kV=7.208 bus1=115.3
New "Load.ln6049963-1" phases=1 status=variable kW=72.1267846187604 kvar=19.1606543696966 kV=7.208 bus1=118.2
New "Load.t21389092b" phases=1 status=variable kW=9.88205382883668 kvar=2.64018158148331 kV=7.208 bus1=119.2
New "Load.t5260505c" phases=1 status=variable kW=10.3275032378447 kvar=2.76052795380756 kV=7.208 bus1=121.3
New "Load.ln5595583-1" phases=1 status=variable kW=14.3943740375195 kvar=3.83625559546059 kV=7.208 bus1=131.1
New "Load.t5260508a" phases=1 status=variable kW=5.39000447076939 kvar=1.44453330227104 kV=7.208 bus1=136.1
New "Load.ln6332133-1" phases=1 status=variable kW=16.5096671958218 kvar=4.40403259232199 kV=7.208 bus1=141.3
New "Load.ln6351523-3" phases=1 status=variable kW=403.198136413453 kvar=108.235667235311 kV=7.208 bus1=141.3
New "Load.ln5896844-1" phases=1 status=variable kW=6.18154502038718 kvar=1.6504608468533 kV=7.208 bus1=143.3
New "Load.t5207290a" phases=1 status=variable kW=9.0044415028644 kvar=2.41098426010209 kV=7.208 bus1=148.1
New "Load.ln5807090-1" phases=1 status=variable kW=13.8214800770811 kvar=3.65486977589974 kV=7.208 bus1=153.2
New "Load.ln6195132-1" phases=1 status=variable kW=32.6240398676468 kvar=8.64852939475569 kV=7.208 bus1=153.2
New "Load.t5207286c" phases=1 status=variable kW=4.12006748887077 kvar=1.10270450364408 kV=7.208 bus1=159.3
New "Load.t5247184c" phases=1 status=variable kW=10.3280987074508 kvar=2.75995911067957 kV=7.208 bus1=168.3
New "Load.t5247185b" phases=1 status=variable kW=5.91896617769655 kvar=1.58216478361711 kV=7.208 bus1=170.2
New "Load.t21389962c" phases=1 status=variable kW=6.18178338037576 kvar=1.65327810443111 kV=7.208 bus1=178.3
New "Load.t225918936c" phases=1 status=variable kW=6.18188492894128 kvar=1.65312060039874 kV=7.208 bus1=187.3
New "Load.t225918926b" phases=1 status=variable kW=5.91927731001622 kvar=1.58179379861585 kV=7.208 bus1=188.2
New "Load.t5247036c" phases=1 status=variable kW=4.12027484715576 kvar=1.10218682792481 kV=7.208 bus1=204.3
New "Load.ln6411382-1" phases=1 status=variable kW=35.9914982270763 kvar=9.5517678129994 kV=7.208 bus1=210.1
New "Load.ln5472361-1" phases=1 status=variable kW=3.59313124439454 kvar=0.951165351818079 kV=7.208 bus1=210.1
New "Load.ln5679773-1" phases=1 status=variable kW=12.5996547400352 kvar=3.349755318168 kV=7.208 bus1=220.1
New "Load.t5138265a" phases=1 status=variable kW=9.00634004832578 kvar=2.40842585434053 kV=7.208 bus1=226.1
New "Load.t5138264b" phases=1 status=variable kW=9.88574299338227 kvar=2.63774614183943 kV=7.208 bus1=228.2
New "Load.ln6409869-1" phases=1 status=variable kW=3.52400411074427E-011 kvar=-0.00588263228663657 kV=7.208 bus1=229.1
New "Load.t5138262a" phases=1 status=variable kW=18.1086387317835 kvar=4.8299684336457 kV=7.208 bus1=230.1
New "Load.ln5625547-1" phases=1 status=variable kW=76.2001104541669 kvar=19.8045934078778 kV=7.208 bus1=237.2
New "Load.ln6047570-1" phases=1 status=variable kW=5.38885027613924 kvar=1.44174799742877 kV=7.208 bus1=238.1
New "Load.ln6411380-1" phases=1 status=variable kW=6.18143598666835 kvar=1.64274724509894 kV=7.208 bus1=238.3
New "Load.ln6199521-1" phases=1 status=variable kW=6.18150213511507 kvar=1.6445390362525 kV=7.208 bus1=241.3
New "Load.ln5776667-1" phases=1 status=variable kW=108.516107879088 kvar=28.8346617001611 kV=7.208 bus1=243.3
New "Load.ln6138609-1" phases=1 status=variable kW=250.612420937899 kvar=66.7723129240795 kV=7.208 bus1=243.3
New "Load.ln6017300-1" phases=1 status=variable kW=6.18157256667026 kvar=1.64247526188788 kV=7.208 bus1=246.3
New "Load.ln5774463-1" phases=1 status=variable kW=4.12008853314382 kvar=1.09277423848889 kV=7.208 bus1=249.3
New "Load.ln6413565-1" phases=1 status=variable kW=125.299385318384 kvar=33.4858955713081 kV=7.208 bus1=255.1
New "Load.ln6108126-1" phases=1 status=variable kW=9.00171530721518 kvar=2.40391595867627 kV=7.208 bus1=255.1
New "Load.t5138655a" phases=1 status=variable kW=5.3894263370155 kvar=1.44692632657834 kV=7.208 bus1=257.1
New "Load.t5138652c" phases=1 status=variable kW=15.537561528905 kvar=4.14810591365063 kV=7.208 bus1=260.3
New "Load.t5138649a" phases=1 status=variable kW=9.00253579241902 kvar=2.4144934281846 kV=7.208 bus1=262.1
New "Load.ln5926297-1" phases=1 status=variable kW=14.4478598210838 kvar=3.85272916077825 kV=7.208 bus1=264.3
New "Load.ln5744334-1" phases=1 status=variable kW=6.18161729589533 kvar=1.63974747486829 kV=7.208 bus1=268.3
New "Load.ln6290207-1" phases=1 status=variable kW=5.38901054777939 kvar=1.43910124274672 kV=7.208 bus1=268.1
New "Load.ln5472350-1" phases=1 status=variable kW=5.91855592509711 kvar=1.57576387353444 kV=7.208 bus1=271.2
New "Load.ln5623393-1" phases=1 status=variable kW=3.59270514796317 kvar=0.959525354134546 kV=7.208 bus1=271.1
New "Load.t5138644a" phases=1 status=variable kW=9.00287447606049 kvar=2.41371863901099 kV=7.208 bus1=277.1
New "Load.t5138642a" phases=1 status=variable kW=5.38956675625463 kvar=1.44610863701754 kV=7.208 bus1=284.1
New "Load.ln5774468-1" phases=1 status=variable kW=12.363138144806 kvar=3.28915830026488 kV=7.208 bus1=288.3
New "Load.ln5716231-1" phases=1 status=variable kW=226.590551069627 kvar=60.4882609420368 kV=7.208 bus1=292.2
New "Load.ln5926309-2" phases=1 status=variable kW=28.7904044318167 kvar=7.65123189484915 kV=7.208 bus1=292.1
New "Load.t5138720a" phases=1 status=variable kW=9.00311552924732 kvar=2.41320513316025 kV=7.208 bus1=296.1
New "Load.t5138719a" phases=1 status=variable kW=9.00317202493362 kvar=2.41308957687517 kV=7.208 bus1=300.1
New "Load.t5138718c" phases=1 status=variable kW=10.327574139972 kvar=2.76044019881412 kV=7.208 bus1=302.3
New "Load.ln6199529-1" phases=1 status=variable kW=20.6556050056385 kvar=5.50700422703566 kV=7.208 bus1=307.3
New "Load.ln5472371-1" phases=1 status=variable kW=18.0074802615567 kvar=4.78492460205106 kV=7.208 bus1=312.1
New "Load.t5302734a" phases=1 status=variable kW=5.3896652989429 kvar=1.44563414874726 kV=7.208 bus1=315.1
New "Load.ln6073648-1" phases=1 status=variable kW=21.581148951589 kvar=5.73226155257467 kV=7.208 bus1=321.1
New "Load.t5302733b" phases=1 status=variable kW=14.857402078561 kvar=3.96534671063494 kV=7.208 bus1=324.2
New "Load.t5302733a" phases=1 status=variable kW=3.59308236469374 kvar=0.964045848789725 kV=7.208 bus1=324.1
New "Load.ln5837356-1" phases=1 status=variable kW=14.3932128706639 kvar=3.80856141596448 kV=7.208 bus1=329.1
New "Load.t5293518b" phases=1 status=variable kW=9.88196370757972 kvar=2.64037550983922 kV=7.208 bus1=333.2
New "Load.t5293519b" phases=1 status=variable kW=1.97201776160448 kvar=0.527886450359978 kV=7.208 bus1=335.2
New "Load.ln6138640-1" phases=1 status=variable kW=14.3935977133341 kvar=3.84033669485359 kV=7.208 bus1=337.1
New "Load.ln5956502-1" phases=1 status=variable kW=-7.81522488946251E-011 kvar=-0.00451273697952095 kV=7.208 bus1=337.3
New "Load.t5293521c" phases=1 status=variable kW=4.12005557505496 kvar=1.10272225991576 kV=7.208 bus1=339.3
New "Load.t5293521b" phases=1 status=variable kW=3.93811021619315 kvar=1.05370963385546 kV=7.208 bus1=339.2
New "Load.t5293521a" phases=1 status=variable kW=3.59309810357025 kvar=0.96389339956895 kV=7.208 bus1=339.1
New "Load.ln6014135-1" phases=1 status=variable kW=67.5530057562219 kvar=17.9950046739168 kV=7.208 bus1=350.1
New "Load.t5293486c" phases=1 status=variable kW=10.3277979793234 kvar=2.76022318865983 kV=7.208 bus1=357.3
New "Load.t5293487b" phases=1 status=variable kW=9.88249515777202 kvar=2.63993286032456 kV=7.208 bus1=360.2
New "Load.ln5986964-1" phases=1 status=variable kW=51.6725712677877 kvar=13.6871828612819 kV=7.208 bus1=362.3
New "Load.t226192684a" phases=1 status=variable kW=5.38982476184188 kvar=1.44497854730602 kV=7.208 bus1=369.1
New "Load.ln5956501-1" phases=1 status=variable kW=10.3280416731711 kvar=2.75287902391918 kV=7.208 bus1=376.3
New "Load.t5293425a" phases=1 status=variable kW=9.00402163982252 kvar=2.41151381450456 kV=7.208 bus1=383.1
New "Load.ln6199561-1" phases=1 status=variable kW=15.5388452484032 kvar=4.14032422594612 kV=7.208 bus1=388.3
New "Load.t21399361b" phases=1 status=variable kW=9.88316872548129 kvar=2.6394156108141 kV=7.208 bus1=393.2
New "Load.t5293423b" phases=1 status=variable kW=5.91898046026277 kvar=1.58223599216584 kV=7.208 bus1=397.2
New "Load.ln5653492-1" phases=1 status=variable kW=28.8766009532365 kvar=7.67443279185178 kV=7.208 bus1=407.3
New "Load.t5302507b" phases=1 status=variable kW=9.88348905251256 kvar=2.63918562831472 kV=7.208 bus1=420.2
New "Load.ln5562937-2" phases=1 status=variable kW=9.00409279620419 kvar=2.4048390834223 kV=7.208 bus1=428.1
New "Load.ln6140777-1" phases=1 status=variable kW=134.371223128662 kvar=35.7949737518252 kV=7.208 bus1=434.1
New "Load.t5302375b" phases=1 status=variable kW=5.91915547050813 kvar=1.58201729265032 kV=7.208 bus1=439.2
New "Load.ln5744343-2" phases=1 status=variable kW=9.00422307759292 kvar=2.39880617360113 kV=7.208 bus1=445.1
New "Load.ln6409762-1" phases=1 status=variable kW=6.18162011813619 kvar=1.64577039916998 kV=7.208 bus1=451.3
New "Load.ln6047581-1" phases=1 status=variable kW=5.91976741405129 kvar=1.57849238349669 kV=7.208 bus1=454.2
New "Load.ln6199524-1" phases=1 status=variable kW=5.91986736653187 kvar=1.56915658862063 kV=7.208 bus1=454.2
New "Load.ln5502541-1" phases=1 status=variable kW=5.38946966138012 kvar=1.43290703408689 kV=7.208 bus1=460.1
New "Load.ln6140778-1" phases=1 status=variable kW=257.964517354 kvar=68.949922731874 kV=7.208 bus1=463.2
New "Load.t5293471c" phases=1 status=variable kW=10.3278498371503 kvar=2.76017376392297 kV=7.208 bus1=368.3
New "Load.t5293471b" phases=1 status=variable kW=9.88261533393732 kvar=2.63983708416958 kV=7.208 bus1=368.2
New "Load.t5293471a" phases=1 status=variable kW=9.00386269923164 kvar=2.41178740890016 kV=7.208 bus1=368.1
New "Load.t21384099c" phases=1 status=variable kW=15.5416322807561 kvar=4.1460027929686 kV=7.208 bus1=217.3
New "Load.t21384099b" phases=1 status=variable kW=19.8724082042556 kvar=5.2905631753554 kV=7.208 bus1=217.2
New "Load.t21384099a" phases=1 status=variable kW=13.5386722991696 kvar=3.61708612054711 kV=7.208 bus1=217.1
New "Load.t228091193c" phases=1 status=variable kW=20.7726680776089 kvar=5.53465196034004 kV=7.208 bus1=223.3
New "Load.t228091193b" phases=1 status=variable kW=19.872416671533 kvar=5.29056131679246 kV=7.208 bus1=223.2
New "Load.t228091193a" phases=1 status=variable kW=18.1053708832256 kvar=4.83142989960443 kV=7.208 bus1=223.1
New "Load.t5260543c" phases=1 status=variable kW=10.3270289676537 kvar=2.76101684525125 kV=7.208 bus1=72.3
New "Load.t5260551c" phases=1 status=variable kW=15.5364294327639 kvar=4.14880443518853 kV=7.208 bus1=78.3
New "Load.ln6103927-1" phases=1 status=variable kW=18.0997211001354 kvar=4.83142689119102 kV=7.208 bus1=81.1
New "Load.ln5528574-2" phases=1 status=variable kW=12.3630532584965 kvar=3.28486212039571 kV=7.208 bus1=83.3
New "Load.ln5800724-1" phases=1 status=variable kW=13.5360031958733 kvar=3.61479777075208 kV=7.208 bus1=85.1
New "Load.ln5989326-1" phases=1 status=variable kW=4.11998656922475 kvar=1.09408562485514 kV=7.208 bus1=92.3
New "Load.ln6346338-1" phases=1 status=variable kW=26.8397584860878 kvar=7.10915496308316 kV=7.208 bus1=94.3
New "Load.ln5651987-1" phases=1 status=variable kW=13.5381874758329 kvar=3.61041629983174 kV=7.208 bus1=103.1
New "Load.t226194419c" phases=1 status=variable kW=10.3271171655728 kvar=2.76090465464405 kV=7.208 bus1=109.3
New "Load.ln5591708-1" phases=1 status=variable kW=18.5447365973446 kvar=4.92569798800955 kV=7.208 bus1=112.3
New "Load.t226194421c" phases=1 status=variable kW=10.3271199692532 kvar=2.7609004884212 kV=7.208 bus1=113.3
New "Load.ln6289479-1" phases=1 status=variable kW=33.0185245488982 kvar=8.78346194206559 kV=7.208 bus1=117.3
New "Load.t5260574c" phases=1 status=variable kW=10.3271201526636 kvar=2.76089678183146 kV=7.208 bus1=120.3
New "Load.ln6103926-1" phases=1 status=variable kW=24.7206748620549 kvar=6.56017841306782 kV=7.208 bus1=125.2
New "Load.t5260577c" phases=1 status=variable kW=15.5366237147209 kvar=4.14865806740316 kV=7.208 bus1=126.3
New "Load.ln5861084-1" phases=1 status=variable kW=36.1985821974726 kvar=9.56968662396745 kV=7.208 bus1=127.3
New "Load.ln6255845-1" phases=1 status=variable kW=40.5542147922773 kvar=10.788523425014 kV=7.208 bus1=130.2
New "Load.ln5561444-1" phases=1 status=variable kW=3.59324255196691 kvar=0.956313437156841 kV=7.208 bus1=135.1
New "Load.t5260595c" phases=1 status=variable kW=31.3235439905402 kvar=8.33400065895811 kV=7.208 bus1=139.3
New "Load.t5260595b" phases=1 status=variable kW=29.9762121753484 kvar=7.96406836140869 kV=7.208 bus1=139.2
New "Load.t5260595a" phases=1 status=variable kW=27.3043149765549 kvar=7.26237634315348 kV=7.208 bus1=139.1
New "Load.ln6170199-2" phases=1 status=variable kW=6.18133532222364 kvar=1.64429546406063 kV=7.208 bus1=140.3
New "Load.t5260598a" phases=1 status=variable kW=13.5424230841146 kvar=3.61467344553075 kV=7.208 bus1=142.1
New "Load.t228001810a" phases=1 status=variable kW=9.00802362497319 kvar=2.40669820890562 kV=7.208 bus1=154.1
New "Load.t5260605a" phases=1 status=variable kW=18.1144413258157 kvar=4.82772320860342 kV=7.208 bus1=157.1
New "Load.t5251828b" phases=1 status=variable kW=5.91929783329828 kvar=1.58184500558139 kV=7.208 bus1=161.2
New "Load.t226194826a" phases=1 status=variable kW=9.00826840631329 kvar=2.40648565721905 kV=7.208 bus1=163.1
New "Load.t226197070a" phases=1 status=variable kW=9.00833688157557 kvar=2.40642760640788 kV=7.208 bus1=166.1
New "Load.ln5565229-1" phases=1 status=variable kW=18.0146832611511 kvar=4.79851587773982 kV=7.208 bus1=169.1
New "Load.t5356814c" phases=1 status=variable kW=10.3271322113349 kvar=2.76086326973425 kV=7.208 bus1=172.3
New "Load.ln6292600-1" phases=1 status=variable kW=17.9033746243976 kvar=4.76542725805524 kV=7.208 bus1=175.1
New "Load.t5356810c" phases=1 status=variable kW=4.11996261706116 kvar=1.1029783926404 kV=7.208 bus1=179.3
New "Load.t5328367c" phases=1 status=variable kW=4.11996241848943 kvar=1.10297659971072 kV=7.208 bus1=186.3
New "Load.ln5500985-1" phases=1 status=variable kW=104.24741092315 kvar=27.7107304836769 kV=7.208 bus1=199.1
New "Load.t21469911a" phases=1 status=variable kW=9.00940690817583 kvar=2.40559451185072 kV=7.208 bus1=203.1
New "Load.t5328365b" phases=1 status=variable kW=14.8643946694737 kvar=3.96235797206646 kV=7.208 bus1=205.2
New "Load.t21380325b" phases=1 status=variable kW=9.88497390620573 kvar=2.63826638664963 kV=7.208 bus1=213.2
New "Load.t5328364c" phases=1 status=variable kW=10.3271339136493 kvar=2.76085004263488 kV=7.208 bus1=216.3
New "Load.ln5563852-1" phases=1 status=variable kW=77.5673766770662 kvar=20.650058254911 kV=7.208 bus1=224.3
New "Load.ln5830952-1" phases=1 status=variable kW=24.7312605634291 kvar=6.59530454733335 kV=7.208 bus1=225.2
New "Load.ln5863718-1" phases=1 status=variable kW=5.38923719488702 kvar=1.43053496391437 kV=7.208 bus1=236.1
New "Load.ln6437384-1" phases=1 status=variable kW=20.6279310900708 kvar=5.45291624246312 kV=7.208 bus1=239.3
New "Load.ln5867448-1" phases=1 status=variable kW=19.7831392067353 kvar=5.26157987874712 kV=7.208 bus1=242.1
New "Load.ln6103924-1" phases=1 status=variable kW=18.0060158252238 kvar=4.78748384084224 kV=7.208 bus1=256.1
New "Load.t5339048a" phases=1 status=variable kW=5.38952816305724 kvar=1.44591667810231 kV=7.208 bus1=259.1
New "Load.ln5861081-1" phases=1 status=variable kW=20.6539067843754 kvar=5.47985685625108 kV=7.208 bus1=261.3
New "Load.t5339052c" phases=1 status=variable kW=15.5350152569492 kvar=4.14962762735383 kV=7.208 bus1=263.3
New "Load.t5339051c" phases=1 status=variable kW=10.3264130530263 kvar=2.76160252385117 kV=7.208 bus1=265.3
New "Load.t5338979b" phases=1 status=variable kW=3.93788761188695 kvar=1.05459908656637 kV=7.208 bus1=279.2
New "Load.t5338978c" phases=1 status=variable kW=10.3263780644635 kvar=2.76163072554766 kV=7.208 bus1=293.3
New "Load.ln6171506-1" phases=1 status=variable kW=51.3167149528348 kvar=13.6110153853194 kV=7.208 bus1=313.1
New "Load.t5338976b" phases=1 status=variable kW=5.91817909593963 kvar=1.58373725404027 kV=7.208 bus1=322.2
New "Load.ln6138623-1" phases=1 status=variable kW=9.00311772987306 kvar=2.40461749688009 kV=7.208 bus1=323.1
New "Load.ln6413568-1" phases=1 status=variable kW=27.9321935478093 kvar=7.43331318830602 kV=7.208 bus1=331.1
New "Load.t5338972b" phases=1 status=variable kW=9.8816231945574 kvar=2.64094566835628 kV=7.208 bus1=342.2
New "Load.ln6047575-2" phases=1 status=variable kW=9.00087828197902 kvar=2.41293604374572 kV=7.208 bus1=352.1
New "Load.ln5562931-2" phases=1 status=variable kW=15.5343234581655 kvar=4.14814870256038 kV=7.208 bus1=356.3
New "Load.ln5714052-2" phases=1 status=variable kW=13.5273812838902 kvar=3.61400854325031 kV=7.208 bus1=356.1
New "Load.ln6047574-2" phases=1 status=variable kW=20.6530679073394 kvar=5.50499385650744 kV=7.208 bus1=359.3
New "Load.ln5532752-2" phases=1 status=variable kW=9.00117426431334 kvar=2.40951231987521 kV=7.208 bus1=359.1
New "Load.ln6411386-2" phases=1 status=variable kW=13.5278988861993 kvar=3.6243226473659 kV=7.208 bus1=367.1
New "Load.ln6129680-2" phases=1 status=variable kW=5.38894712436281 kvar=1.44140881895104 kV=7.208 bus1=371.1
New "Load.ln6411387-1" phases=1 status=variable kW=9.00037248544494 kvar=2.41343103624066 kV=7.208 bus1=371.1
New "Load.t5338937c" phases=1 status=variable kW=10.3270674107337 kvar=2.76085403158692 kV=7.208 bus1=380.3
New "Load.ln5773033-1" phases=1 status=variable kW=10.3014685978549 kvar=2.73462813962039 kV=7.208 bus1=392.3
...

New "Load.DER1" phases=3 status=variable kW=0 kvar=0 kV=7.208 bus1=650
New "Load.DER2" phases=3 status=variable kW=0 kvar=0 kV=7.208 bus1=651
New "Load.DER3" phases=3 status=variable kW=0 kvar=0 kV=7.208 bus1=652
New "Load.DER4" phases=3 status=variable kW=0 kvar=0 kV=7.208 bus1=653
New "Load.DER5" phases=3 status=variable kW=0 kvar=0 kV=7.208 bus1=654
New "Load.DER6" phases=3 status=variable kW=0 kvar=0 kV=7.208 bus1=655
New "Load.DER7" phases=3 status=variable kW=0 kvar=0 kV=7.208 bus1=656
New "Load.DER8" phases=3 status=variable kW=0 kvar=0 kV=7.208 bus1=657
New "Load.DER9" phases=3 status=variable kW=0 kvar=0 kV=7.208 bus1=658
New "Load.DER10" phases=3 status=variable kW=0 kvar=0 kV=7.208 bus1=659
New "Load.DER11" phases=3 status=variable kW=0 kvar=0 kV=7.208 bus1=660
New "Load.DER12" phases=3 status=variable kW=0 kvar=0 kV=7.208 bus1=661
New "Load.DER13" phases=3 status=variable kW=0 kvar=0 kV=7.208 bus1=662
New "Load.DER14" phases=3 status=variable kW=0 kvar=0 kV=7.208 bus1=663
New "Load.DER15" phases=3 status=variable kW=0 kvar=0 kV=7.208 bus1=664
New "Load.DER16" phases=3 status=variable kW=0 kvar=0 kV=7.208 bus1=665
New "Load.DER17" phases=3 status=variable kW=0 kvar=0 kV=7.208 bus1=666
New "Load.DER18" phases=3 status=variable kW=0 kvar=0 kV=7.208 bus1=667
New "Load.DER19" phases=3 status=variable kW=0 kvar=0 kV=7.208 bus1=668
New "Load.DER20" phases=3 status=variable kW=0 kvar=0 kV=7.208 bus1=669
New "Load.DER21" phases=3 status=variable kW=0 kvar=0 kV=7.208 bus1=670
New "Load.DER22" phases=3 status=variable kW=0 kvar=0 kV=7.208 bus1=671
New "Load.DER23" phases=3 status=variable kW=0 kvar=0 kV=7.208 bus1=672
New "Load.DER24" phases=3 status=variable kW=0 kvar=0 kV=7.208 bus1=673
New "Load.DER25" phases=3 status=variable kW=0 kvar=0 kV=7.208 bus1=674
