DSS_Simulator/ieee650v2_Renamed_withpv/Transformer.DSS
New "Transformer.hvmv_sub" phases=3 windings=2 XHL=15.51 sub=y subname=HVMV_Sub conns=[delta, wye, ] kVs=[115, 12.47, ] kVAs=[27500, 27500, ] taps=[1, 1, ] buses=[2, 3.1.2.3.0, ] conns=[delta, wye, ] kVs=[115, 12.47, ] kVAs=[27500, 27500, ] taps=[1, 1, ] wdg=1 %R=0.67202 RdcOhms=2.747034 wdg=2 %R=0.67202 RdcOhms=0.01076664 RdcOhms=0.01076664 buses=[2, 3.1.2.3.0, ]
New "Transformer.feeder_rega" phases=1 windings=2 XHL=0.1 %loadloss=0.001 conns=[wye, wye, ] kVs=[7.2, 7.2, ] kVAs=[27500, 27500, ] taps=[1, 1.0125, ] buses=[3.1, 4.1, ] conns=[wye, wye, ] kVs=[7.2, 7.2, ] kVAs=[27500, 27500, ] taps=[1, 1.0125, ] wdg=1 %R=0.0005 RdcOhms=8.011636E-006 wdg=2 %R=0.0005 RdcOhms=8.011636E-006 RdcOhms=8.011636E-006 MaxTap=1.1 MinTap=0.9 ppm_antifloat=0 buses=[3.1, 4.1, ]
New "Transformer.feeder_regb" phases=1 windings=2 XHL=0.1 %loadloss=0.001 conns=[wye, wye, ] kVs=[7.2, 7.2, ] kVAs=[27500, 27500, ] taps=[1, 1.0125, ] buses=[3.2, 4.2, ] conns=[wye, wye, ] kVs=[7.2, 7.2, ] kVAs=[27500, 27500, ] taps=[1, 1.0125, ] wdg=1 %R=0.0005 RdcOhms=8.011636E-006 wdg=2 %R=0.0005 RdcOhms=8.011636E-006 RdcOhms=8.011636E-006 MaxTap=1.1 MinTap=0.9 ppm_antifloat=0 buses=[3.2, 4.2, ]
New "Transformer.feeder_regc" phases=1 windings=2 XHL=0.1 %loadloss=0.001 conns=[wye, wye, ] kVs=[7.2, 7.2, ] kVAs=[27500, 27500, ] taps=[1, 1.00625, ] buses=[3.3, 4.3, ] conns=[wye, wye, ] kVs=[7.2, 7.2, ] kVAs=[27500, 27500, ] taps=[1, 1.00625, ] wdg=1 %R=0.0005 RdcOhms=8.011636E-006 wdg=2 %R=0.0005 RdcOhms=8.011636E-006 RdcOhms=8.011636E-006 MaxTap=1.1 MinTap=0.9 ppm_antifloat=0 buses=[3.3, 4.3, ]
