DSS_Simulator/ieee650v2_Renamed_withpv/ieee650_Curr_Elem.Txt

CIRCUIT ELEMENT CURRENTS

(Currents into element from indicated bus)

Power Delivery Elements

  Bus Phase    Magnitude, A     Angle      (Real)   +j  (Imag)

ELEMENT = "Vsource.SOURCE"
1        1           59.699 /_  171.0 =    -58.966 +j    9.3268
1        2           54.468 /_   52.9 =     32.823 +j    43.467
1        3           58.912 /_  -63.7 =     26.143 +j   -52.794
------------
1        0           59.699 /_   -9.0 =     58.966 +j   -9.3268
1        0           54.468 /_ -127.1 =    -32.823 +j   -43.467
1        0           58.912 /_  116.3 =    -26.143 +j    52.794

ELEMENT = "Line.LN5815900-1"
7        1           549.39 /_  -37.9 =     433.77 +j   -337.16
7        2            531.6 /_ -159.1 =    -496.48 +j   -190.02
7        3           499.26 /_   87.5 =     21.473 +j     498.8
------------
8        1           549.39 /_  142.1 =    -433.77 +j    337.16
8        2            531.6 /_   20.9 =     496.48 +j    190.02
8        3           499.26 /_  -92.5 =    -21.474 +j    -498.8

ELEMENT = "Line.LN5742828-1"
8        1           549.39 /_  -37.9 =     433.77 +j   -337.16
8        2            531.6 /_ -159.1 =    -496.48 +j   -190.02
8        3           499.26 /_   87.5 =     21.474 +j     498.8
------------
9        1           549.39 /_  142.1 =    -433.77 +j    337.16
9        2            531.6 /_   20.9 =     496.48 +j    190.02
9        3           499.26 /_  -92.5 =    -21.475 +j    -498.8

ELEMENT = "Line.LN5742828-2"
9        1           549.39 /_  -37.9 =     433.77 +j   -337.16
9        2            531.6 /_ -159.1 =    -496.48 +j   -190.02
9        3           498.72 /_   87.6 =      21.29 +j    498.26
------------
10       1           549.39 /_  142.1 =    -433.77 +j    337.16
10       2            531.6 /_   20.9 =     496.48 +j    190.01
10       3           498.72 /_  -92.4 =    -21.292 +j   -498.26

ELEMENT = "Line.LN5473414-1"
10       1           549.39 /_  -37.9 =     433.77 +j   -337.16
10       2            531.6 /_ -159.1 =    -496.48 +j   -190.01
10       3           498.72 /_   87.6 =     21.292 +j    498.26
------------
11       1           549.39 /_  142.1 =    -433.77 +j    337.16
11       2            531.6 /_   20.9 =     496.48 +j    190.01
11       3           498.72 /_  -92.4 =    -21.296 +j   -498.26

ELEMENT = "Line.LN5714974-1"
11       1           549.39 /_  -37.9 =     433.77 +j   -337.16
11       2            531.6 /_ -159.1 =    -496.48 +j   -190.01
11       3           498.72 /_   87.6 =     21.296 +j    498.26
------------
12       1           549.39 /_  142.1 =    -433.76 +j    337.17
12       2            531.6 /_   20.9 =     496.48 +j    190.01
12       3           498.72 /_  -92.4 =      -21.3 +j   -498.26

ELEMENT = "Line.LN5896798-1"
12       1           549.39 /_  -37.9 =     433.76 +j   -337.17
12       2            531.6 /_ -159.1 =    -496.48 +j   -190.01
12       3           498.72 /_   87.6 =       21.3 +j    498.26
------------
13       1           549.39 /_  142.1 =    -433.76 +j    337.17
13       2            531.6 /_   20.9 =     496.49 +j    190.01
13       3           498.72 /_  -92.4 =    -21.302 +j   -498.26

ELEMENT = "Line.LN5775442-1"
13       1           549.39 /_  -37.9 =     433.76 +j   -337.17
13       2            531.6 /_ -159.1 =    -496.49 +j   -190.01
13       3           498.72 /_   87.6 =     21.302 +j    498.26
------------
14       1           549.39 /_  142.1 =    -433.76 +j    337.17
14       2            531.6 /_   20.9 =     496.49 +j       190
14       3           498.72 /_  -92.4 =    -21.305 +j   -498.26

ELEMENT = "Line.CAP_1A"
14       1           549.15 /_  -37.9 =      433.6 +j   -336.98
------------
15       1           549.15 /_  142.1 =     -433.6 +j    336.98

ELEMENT = "Line.LN5513564-2"
15       1           549.15 /_  -37.9 =      433.6 +j   -336.98
15       2            531.6 /_ -159.1 =    -496.49 +j      -190
15       3           498.72 /_   87.6 =     21.305 +j    498.26
------------
16       1           549.15 /_  142.1 =     -433.6 +j    336.98
16       2            531.6 /_   20.9 =     496.49 +j       190
16       3           498.71 /_  -92.4 =    -21.307 +j   -498.26

ELEMENT = "Line.LN5513564-1"
16       1           552.81 /_  -42.3 =     408.59 +j   -372.36
16       2           536.32 /_ -163.7 =    -514.71 +j   -150.72
16       3           498.84 /_   82.5 =     64.783 +j    494.61
------------
17       1           552.81 /_  137.7 =    -408.59 +j    372.36
17       2           536.32 /_   16.3 =     514.71 +j    150.72
17       3           498.84 /_  -97.5 =    -64.784 +j   -494.61

ELEMENT = "Line.XJ171_48332_SW"
17       1           552.81 /_  -42.3 =     408.59 +j   -372.36
17       2           536.32 /_ -163.7 =    -514.71 +j   -150.72
17       3           498.84 /_   82.5 =     64.784 +j    494.61
------------
18       1           552.81 /_  137.7 =    -408.59 +j    372.36
18       2           536.32 /_   16.3 =     514.71 +j    150.72
18       3           498.84 /_  -97.5 =    -64.784 +j   -494.61

ELEMENT = "Line.LN6321409-1"
18       1           552.81 /_  -42.3 =     408.59 +j   -372.36
18       2           536.32 /_ -163.7 =    -514.71 +j   -150.72
18       3           498.84 /_   82.5 =     64.784 +j    494.61
------------
19       1           552.81 /_  137.7 =    -408.59 +j    372.37
19       2           536.32 /_   16.3 =     514.71 +j    150.72
19       3           498.84 /_  -97.5 =    -64.786 +j   -494.61

ELEMENT = "Line.LN5654466-1"
19       1           552.81 /_  -42.3 =     408.59 +j   -372.37
19       2           536.32 /_ -163.7 =    -514.71 +j   -150.72
19       3           464.15 /_   83.5 =     52.639 +j    461.15
------------
20       1           552.82 /_  137.7 =    -408.59 +j    372.37
20       2           536.33 /_   16.3 =     514.71 +j    150.71
20       3           464.15 /_  -96.5 =    -52.641 +j   -461.15

ELEMENT = "Line.LN6291242-1"
20       1           552.82 /_  -42.3 =     408.59 +j   -372.37
20       2           536.33 /_ -163.7 =    -514.71 +j   -150.71
20       3           464.15 /_   83.5 =     52.641 +j    461.15
------------
21       1           552.82 /_  137.7 =    -408.59 +j    372.37
21       2           536.33 /_   16.3 =     514.71 +j    150.71
21       3           464.15 /_  -96.5 =    -52.644 +j   -461.15

ELEMENT = "Line.LN5654472-1"
21       1           547.36 /_  -42.3 =     405.09 +j   -368.12
21       2           536.33 /_ -163.7 =    -514.71 +j   -150.71
21       3           464.15 /_   83.5 =     52.644 +j    461.15
------------
22       1           547.36 /_  137.7 =    -405.08 +j    368.12
22       2           536.33 /_   16.3 =     514.72 +j    150.71
22       3           464.15 /_  -96.5 =    -52.645 +j   -461.15

ELEMENT = "Line.LN5594242-1"
22       1           547.36 /_  -42.3 =     405.08 +j   -368.12
22       2           536.33 /_ -163.7 =    -514.72 +j   -150.71
22       3           464.15 /_   83.5 =     52.645 +j    461.15
------------
23       1           547.36 /_  137.7 =    -405.08 +j    368.12
23       2           536.33 /_   16.3 =     514.72 +j    150.71
23       3           464.15 /_  -96.5 =    -52.647 +j   -461.15

ELEMENT = "Line.LN6351519-1"
23       1           547.36 /_  -42.3 =     405.08 +j   -368.12
23       2           536.33 /_ -163.7 =    -514.72 +j   -150.71
23       3           463.32 /_   83.5 =     52.357 +j    460.35
------------
24       1           547.36 /_  137.7 =    -405.08 +j    368.12
24       2           536.33 /_   16.3 =     514.72 +j    150.71
24       3           463.32 /_  -96.5 =     -52.36 +j   -460.35

ELEMENT = "Line.LN6261021-1"
24       1           547.36 /_  -42.3 =     405.08 +j   -368.12
24       2           536.33 /_ -163.7 =    -514.72 +j   -150.71
24       3           463.32 /_   83.5 =      52.36 +j    460.35
------------
25       1           547.36 /_  137.7 =    -405.08 +j    368.13
25       2           536.33 /_   16.3 =     514.72 +j     150.7
25       3           463.32 /_  -96.5 =    -52.364 +j   -460.35

ELEMENT = "Line.LN5473440-1"
25       1           546.62 /_  -42.3 =     404.61 +j   -367.54
25       2           536.33 /_ -163.7 =    -514.72 +j    -150.7
25       3           463.32 /_   83.5 =     52.364 +j    460.35
------------
26       1           546.62 /_  137.7 =     -404.6 +j    367.54
26       2           536.33 /_   16.3 =     514.72 +j     150.7
26       3           463.32 /_  -96.5 =    -52.367 +j   -460.35

ELEMENT = "Line.LN5866268-1"
26       1           545.37 /_  -42.2 =     403.81 +j   -366.56
26       2           536.33 /_ -163.7 =    -514.72 +j    -150.7
26       3           463.32 /_   83.5 =     52.367 +j    460.35
------------
27       1           545.37 /_  137.8 =    -403.81 +j    366.56
27       2           536.33 /_   16.3 =     514.72 +j     150.7
27       3           463.32 /_  -96.5 =     -52.37 +j   -460.35

ELEMENT = "Line.LN6048634-1"
27       1           545.37 /_  -42.2 =     403.81 +j   -366.56
27       2           536.33 /_ -163.7 =    -514.72 +j    -150.7
27       3           463.32 /_   83.5 =      52.37 +j    460.35
------------
28       1           545.37 /_  137.8 =    -403.81 +j    366.56
28       2           536.33 /_   16.3 =     514.72 +j     150.7
28       3           463.32 /_  -96.5 =    -52.371 +j   -460.35

ELEMENT = "Line.LN6504019-5"
28       1           545.37 /_  -42.2 =     403.81 +j   -366.56
28       2           536.33 /_ -163.7 =    -514.72 +j    -150.7
28       3           463.32 /_   83.5 =     52.371 +j    460.35
------------
29       1           545.37 /_  137.8 =    -403.81 +j    366.56
29       2           536.33 /_   16.3 =     514.72 +j    150.69
29       3           463.32 /_  -96.5 =    -52.373 +j   -460.35

ELEMENT = "Line.LN6504020-2"
29       1           529.14 /_  -42.0 =     393.53 +j   -353.72
29       2           512.47 /_ -163.3 =    -490.92 +j   -147.06
29       3           445.93 /_   84.1 =     46.032 +j    443.55
------------
34       1           529.14 /_  138.0 =    -393.53 +j    353.73
34       2           512.47 /_   16.7 =     490.92 +j    147.05
34       3           445.93 /_  -95.9 =     -46.04 +j   -443.55

ELEMENT = "Line.LN6504018-1"
34       1           529.14 /_  -42.0 =     393.53 +j   -353.73
34       2           512.47 /_ -163.3 =    -490.92 +j   -147.05
34       3           445.93 /_   84.1 =      46.04 +j    443.55
------------
41       1           529.14 /_  138.0 =    -393.52 +j    353.73
41       2           512.47 /_   16.7 =     490.92 +j    147.04
41       3           445.93 /_  -95.9 =    -46.051 +j   -443.55

ELEMENT = "Line.LN5957526-1"
41       1           529.14 /_  -42.0 =     393.52 +j   -353.73
41       2           512.47 /_ -163.3 =    -490.92 +j   -147.04
41       3           440.17 /_   84.3 =     43.888 +j    437.97
------------
45       1           529.14 /_  138.0 =    -393.52 +j    353.74
45       2           512.47 /_   16.7 =     490.93 +j    147.04
45       3           440.17 /_  -95.7 =    -43.889 +j   -437.97

ELEMENT = "Line.LN5715052-1"
45       1           526.61 /_  -41.9 =     391.95 +j   -351.71
45       2           512.47 /_ -163.3 =    -490.93 +j   -147.04
45       3           440.17 /_   84.3 =     43.889 +j    437.97
------------
51       1           526.61 /_  138.1 =    -391.95 +j    351.71
51       2           512.47 /_   16.7 =     490.93 +j    147.04
51       3           440.17 /_  -95.7 =    -43.893 +j   -437.97

ELEMENT = "Line.LN5866308-1"
51       1           526.61 /_  -41.9 =     391.95 +j   -351.71
51       2           511.65 /_ -163.3 =     -490.1 +j   -146.93
51       3           440.17 /_   84.3 =     43.893 +j    437.97
------------
52       1           526.61 /_  138.1 =    -391.95 +j    351.71
52       2           511.65 /_   16.7 =      490.1 +j    146.93
52       3           440.17 /_  -95.7 =    -43.894 +j   -437.97

ELEMENT = "Line.LN6412354-1"
52       1            518.8 /_  -41.7 =     387.09 +j   -345.42
52       2           511.65 /_ -163.3 =     -490.1 +j   -146.93
52       3           440.17 /_   84.3 =     43.894 +j    437.97
------------
53       1            518.8 /_  138.3 =    -387.09 +j    345.42
53       2           511.65 /_   16.7 =      490.1 +j    146.93
53       3           440.17 /_  -95.7 =    -43.894 +j   -437.97

ELEMENT = "Line.LN6412355-1"
53       1            518.8 /_  -41.7 =     387.09 +j   -345.42
53       2           511.65 /_ -163.3 =     -490.1 +j   -146.93
53       3           440.17 /_   84.3 =     43.894 +j    437.97
------------
54       1            518.8 /_  138.3 =    -387.09 +j    345.42
54       2           511.65 /_   16.7 =      490.1 +j    146.92
54       3           440.17 /_  -95.7 =    -43.896 +j   -437.97

ELEMENT = "Line.LN5745355-1"
54       1           518.04 /_  -41.7 =     386.62 +j   -344.81
54       2           511.65 /_ -163.3 =     -490.1 +j   -146.92
54       3           440.17 /_   84.3 =     43.896 +j    437.97
------------
56       1           518.04 /_  138.3 =    -386.62 +j    344.81
56       2           511.65 /_   16.7 =      490.1 +j    146.92
56       3           440.16 /_  -95.7 =    -43.898 +j   -437.97

ELEMENT = "Line.LN5896834-1"
56       1           516.78 /_  -41.7 =     385.84 +j   -343.79
56       2           511.65 /_ -163.3 =     -490.1 +j   -146.92
56       3           440.16 /_   84.3 =     43.898 +j    437.97
------------
57       1           516.78 /_  138.3 =    -385.83 +j    343.79
57       2           511.65 /_   16.7 =      490.1 +j    146.92
57       3           440.16 /_  -95.7 =    -43.901 +j   -437.97

ELEMENT = "Line.LN6023352-1"
57       1           516.02 /_  -41.7 =     385.37 +j   -343.18
57       2           511.65 /_ -163.3 =     -490.1 +j   -146.92
57       3           440.16 /_   84.3 =     43.901 +j    437.97
------------
58       1           516.02 /_  138.3 =    -385.37 +j    343.18
58       2           511.65 /_   16.7 =      490.1 +j    146.92
58       3           440.16 /_  -95.7 =    -43.903 +j   -437.97

ELEMENT = "Line.L9407_48332_SW"
58       1           516.02 /_  -41.7 =     385.37 +j   -343.18
58       2           511.65 /_ -163.3 =     -490.1 +j   -146.92
58       3           440.16 /_   84.3 =     43.903 +j    437.97
------------
59       1           516.02 /_  138.3 =    -385.37 +j    343.18
59       2           511.65 /_   16.7 =      490.1 +j    146.92
59       3           440.16 /_  -95.7 =    -43.903 +j   -437.97

ELEMENT = "Line.LN6326450-1"
59       1           516.02 /_  -41.7 =     385.37 +j   -343.18
59       2           511.65 /_ -163.3 =     -490.1 +j   -146.92
59       3           440.16 /_   84.3 =     43.903 +j    437.97
------------
60       1           516.02 /_  138.3 =    -385.37 +j    343.18
60       2           511.65 /_   16.7 =      490.1 +j    146.92
60       3           440.16 /_  -95.7 =    -43.903 +j   -437.97

ELEMENT = "Line.LN5992960-1"
60       1           516.02 /_  -41.7 =     385.37 +j   -343.18
60       2           511.65 /_ -163.3 =     -490.1 +j   -146.92
60       3           440.16 /_   84.3 =     43.903 +j    437.97
------------
61       1           516.02 /_  138.3 =    -385.37 +j    343.18
61       2           511.65 /_   16.7 =      490.1 +j    146.92
61       3           440.16 /_  -95.7 =    -43.904 +j   -437.97

ELEMENT = "Line.LN5508630-1"
61       1           516.02 /_  -41.7 =     385.37 +j   -343.18
61       2           511.65 /_ -163.3 =     -490.1 +j   -146.92
61       3           440.16 /_   84.3 =     43.904 +j    437.97
------------
62       1           516.02 /_  138.3 =    -385.37 +j    343.18
62       2           511.65 /_   16.7 =      490.1 +j    146.92
62       3           440.16 /_  -95.7 =    -43.904 +j   -437.97

ELEMENT = "Line.LN5805762-1"
62       1           516.02 /_  -41.7 =     385.37 +j   -343.18
62       2           511.65 /_ -163.3 =     -490.1 +j   -146.92
62       3           439.62 /_   84.3 =     43.691 +j    437.44
------------
63       1           516.02 /_  138.3 =    -385.36 +j    343.18
63       2           511.65 /_   16.7 =      490.1 +j    146.91
63       3           439.62 /_  -95.7 =    -43.693 +j   -437.44

ELEMENT = "Line.LN6018336-1"
63       1           515.52 /_  -41.7 =     385.05 +j   -342.77
63       2           511.65 /_ -163.3 =     -490.1 +j   -146.91
63       3           439.62 /_   84.3 =     43.693 +j    437.44
------------
64       1           515.52 /_  138.3 =    -385.05 +j    342.77
64       2           511.65 /_   16.7 =      490.1 +j    146.91
64       3           439.62 /_  -95.7 =    -43.695 +j   -437.44

ELEMENT = "Line.LN5563942-4"
64       1           515.52 /_  -41.7 =     385.05 +j   -342.77
64       2           511.65 /_ -163.3 =     -490.1 +j   -146.91
64       3           436.05 /_   84.4 =     42.303 +j       434
------------
65       1           515.52 /_  138.3 =    -385.05 +j    342.77
65       2           511.65 /_   16.7 =      490.1 +j    146.91
65       3           436.05 /_  -95.6 =    -42.304 +j      -434

ELEMENT = "Line.2002200004868472_SW"
65       1           515.52 /_  -41.7 =     385.05 +j   -342.77
65       2           511.65 /_ -163.3 =     -490.1 +j   -146.91
65       3           436.05 /_   84.4 =     42.304 +j       434
------------
66       1           515.52 /_  138.3 =    -385.05 +j    342.77
66       2           511.65 /_   16.7 =      490.1 +j    146.91
66       3           436.05 /_  -95.6 =    -42.304 +j      -434

ELEMENT = "Line.CAP_2A"
66       1           515.52 /_  -41.7 =     385.05 +j   -342.77
------------
67       1           515.52 /_  138.3 =    -385.05 +j    342.77

ELEMENT = "Line.LN5563942-5"
67       1           515.52 /_  -41.7 =     385.05 +j   -342.77
67       2           511.65 /_ -163.3 =     -490.1 +j   -146.91
67       3           436.05 /_   84.4 =     42.304 +j       434
------------
68       1           515.52 /_  138.3 =    -385.05 +j    342.77
68       2           511.65 /_   16.7 =      490.1 +j    146.91
68       3           436.05 /_  -95.6 =    -42.305 +j      -434

ELEMENT = "Line.LN5563942-3"
68       1            519.8 /_  -46.3 =     359.32 +j   -375.61
68       2           516.95 /_ -168.0 =    -505.58 +j   -107.83
68       3           437.03 /_   78.8 =     85.237 +j    428.63
------------
69       1            519.8 /_  133.7 =    -359.32 +j    375.61
69       2           516.95 /_   12.0 =     505.58 +j    107.83
69       3           437.03 /_ -101.2 =    -85.238 +j   -428.63

ELEMENT = "Line.LN5896833-1"
69       1            519.8 /_  -46.3 =     359.32 +j   -375.61
69       2           516.95 /_ -168.0 =    -505.58 +j   -107.83
69       3           437.03 /_   78.8 =     85.238 +j    428.63
------------
70       1            519.8 /_  133.7 =    -359.31 +j    375.61
70       2           516.95 /_   12.0 =     505.58 +j    107.83
70       3           437.03 /_ -101.2 =    -85.241 +j   -428.63

ELEMENT = "Line.LN5805761-1"
70       1            519.8 /_  -46.3 =     359.31 +j   -375.61
70       2           514.84 /_ -167.9 =    -503.47 +j   -107.59
70       3           437.03 /_   78.8 =     85.241 +j    428.63
------------
71       1            519.8 /_  133.7 =    -359.31 +j    375.61
71       2           514.84 /_   12.1 =     503.47 +j    107.59
71       3           437.03 /_ -101.2 =    -85.243 +j   -428.63

ELEMENT = "Line.LN5799561-1"
71       1           117.97 /_  -33.0 =     98.934 +j   -64.264
71       2           135.65 /_ -156.9 =    -124.81 +j   -53.128
71       3           166.01 /_   81.2 =     25.498 +j    164.04
------------
73       1           117.97 /_  147.0 =    -98.932 +j    64.267
73       2           135.65 /_   23.1 =     124.81 +j    53.125
73       3           166.01 /_  -98.8 =    -25.502 +j   -164.04

ELEMENT = "Line.LN5799561-2"
73       1           117.25 /_  -32.9 =     98.469 +j   -63.644
73       2           135.65 /_ -156.9 =    -124.81 +j   -53.125
73       3           166.01 /_   81.2 =     25.502 +j    164.04
------------
79       1           117.25 /_  147.1 =    -98.467 +j    63.646
79       2           135.65 /_   23.1 =     124.81 +j    53.122
79       3           166.01 /_  -98.8 =    -25.505 +j   -164.04

ELEMENT = "Line.A8611_48332_SW"
79       1           117.25 /_  -32.9 =     98.467 +j   -63.646
79       2           135.65 /_ -156.9 =    -124.81 +j   -53.122
79       3           166.01 /_   81.2 =     25.505 +j    164.04
------------
80       1           117.25 /_  147.1 =    -98.467 +j    63.646
80       2           135.65 /_   23.1 =     124.81 +j    53.122
80       3           166.01 /_  -98.8 =    -25.505 +j   -164.04

ELEMENT = "Line.LN5594236-1"
80       1           117.25 /_  -32.9 =     98.467 +j   -63.646
80       2           135.65 /_ -156.9 =    -124.81 +j   -53.122
80       3           166.01 /_   81.2 =     25.505 +j    164.04
------------
82       1           117.25 /_  147.1 =    -98.466 +j    63.647
82       2           135.65 /_   23.1 =     124.81 +j     53.12
82       3           166.01 /_  -98.8 =    -25.507 +j   -164.04

ELEMENT = "Line.LN5503575-1"
82       1           117.25 /_  -32.9 =     98.466 +j   -63.647
82       2           135.65 /_ -156.9 =    -124.81 +j    -53.12
82       3           163.91 /_   81.3 =     24.686 +j    162.04
------------
84       1           117.25 /_  147.1 =    -98.464 +j    63.649
84       2           135.65 /_   23.1 =     124.82 +j    53.118
84       3           163.91 /_  -98.7 =    -24.688 +j   -162.04

ELEMENT = "Line.LN6018331-1"
84       1           117.25 /_  -32.9 =     98.464 +j   -63.649
84       2           135.65 /_ -156.9 =    -124.82 +j   -53.118
84       3           158.91 /_   81.8 =     22.722 +j    157.28
------------
86       1           117.25 /_  147.1 =    -98.463 +j    63.651
86       2           135.65 /_   23.1 =     124.82 +j    53.116
86       3           158.91 /_  -98.2 =    -22.724 +j   -157.28

ELEMENT = "Line.LN6291244-1"
86       1           116.03 /_  -32.7 =      97.69 +j   -62.608
86       2           135.65 /_ -156.9 =    -124.82 +j   -53.116
86       3           158.91 /_   81.8 =     22.724 +j    157.28
------------
90       1           116.03 /_  147.3 =    -97.688 +j    62.611
90       2           135.65 /_   23.1 =     124.82 +j    53.111
90       3           158.91 /_  -98.2 =    -22.729 +j   -157.28

ELEMENT = "Line.LN5473436-1"
90       1           116.03 /_  -32.7 =     97.688 +j   -62.611
90       2           135.65 /_ -156.9 =    -124.82 +j   -53.111
90       3           158.91 /_   81.8 =     22.729 +j    157.28
------------
91       1           116.03 /_  147.3 =    -97.688 +j    62.611
91       2           135.65 /_   23.1 =     124.82 +j    53.111
91       3           158.91 /_  -98.2 =    -22.729 +j   -157.28

ELEMENT = "Line.LN5473436-2"
91       1           116.03 /_  -32.7 =     97.688 +j   -62.611
91       2           135.65 /_ -156.9 =    -124.82 +j   -53.111
91       3           158.08 /_   81.9 =     22.399 +j    156.49
------------
93       1           116.03 /_  147.3 =    -97.687 +j    62.613
93       2           135.65 /_   23.0 =     124.82 +j     53.11
93       3           158.08 /_  -98.1 =    -22.401 +j   -156.49

ELEMENT = "Line.LN5896825-1"
93       1           116.03 /_  -32.7 =     97.687 +j   -62.613
93       2           135.65 /_ -157.0 =    -124.82 +j    -53.11
93       3            156.7 /_   82.0 =     21.849 +j    155.16
------------
95       1           116.03 /_  147.3 =    -97.686 +j    62.614
95       2           135.65 /_   23.0 =     124.82 +j    53.108
95       3            156.7 /_  -98.0 =    -21.851 +j   -155.16

ELEMENT = "Line.LN6351510-1"
95       1           116.03 /_  -32.7 =     97.686 +j   -62.614
95       2           135.65 /_ -157.0 =    -124.82 +j   -53.108
95       3            156.7 /_   82.0 =     21.851 +j    155.16
------------
96       1           116.03 /_  147.3 =    -97.686 +j    62.614
96       2           135.65 /_   23.0 =     124.82 +j    53.108
96       3            156.7 /_  -98.0 =    -21.851 +j   -155.16

ELEMENT = "Line.LN5654471-1"
96       1           116.03 /_  -32.7 =     97.686 +j   -62.614
96       2           134.29 /_ -156.8 =    -123.41 +j   -52.957
96       3            156.7 /_   82.0 =     21.851 +j    155.16
------------
98       1           116.03 /_  147.3 =    -97.684 +j    62.616
98       2           134.29 /_   23.2 =     123.41 +j    52.954
98       3           156.69 /_  -98.0 =    -21.853 +j   -155.16

ELEMENT = "Line.LN5745348-1"
98       1           116.03 /_  -32.7 =     97.684 +j   -62.616
98       2           131.05 /_ -156.3 =    -120.04 +j   -52.581
98       3           156.69 /_   82.0 =     21.853 +j    155.16
------------
99       1           116.03 /_  147.3 =    -97.683 +j    62.618
99       2           131.05 /_   23.7 =     120.04 +j    52.579
99       3           156.69 /_  -98.0 =    -21.856 +j   -155.16

ELEMENT = "Line.LN5504876-1"
99       1           8.0538 /_  -53.4 =     4.7979 +j   -6.4687
99       2           5.0984 /_ -173.6 =    -5.0662 +j  -0.57208
99       3         0.018627 /_  168.7 =  -0.018268 +j   0.00364
------------
100      1           8.0543 /_  126.6 =    -4.7968 +j    6.4701
100      2           5.0989 /_    6.4 =     5.0669 +j   0.57038
100      3         0.016788 /_  -11.3 =   0.016464 +j -0.0032805

ELEMENT = "Line.LN5928744-1"
100      1           8.0543 /_  -53.4 =     4.7968 +j   -6.4701
100      2           5.0989 /_ -173.6 =    -5.0669 +j  -0.57038
100      3         0.016788 /_  168.7 =  -0.016464 +j 0.0032805
------------
102      1           8.0545 /_  126.5 =    -4.7964 +j    6.4707
102      2           5.0992 /_    6.4 =     5.0672 +j   0.56968
102      3         0.016027 /_  -11.3 =   0.015718 +j -0.0031317

ELEMENT = "Line.LN5927423-1"
102      1            7.277 /_  -53.4 =     4.3351 +j   -5.8448
102      2           5.0992 /_ -173.6 =    -5.0672 +j  -0.56968
102      3         0.016027 /_  168.7 =  -0.015718 +j 0.0031317
------------
106      1            7.278 /_  126.5 =    -4.3329 +j    5.8476
106      2           5.1003 /_    6.4 =     5.0687 +j   0.56617
106      3         0.012222 /_  -11.3 =   0.011987 +j -0.0023881

ELEMENT = "Line.LN5684911-1"
106      1         0.011528 /_   52.9 =  0.0069585 +j 0.0091912
106      2           5.1003 /_ -173.6 =    -5.0687 +j  -0.56617
106      3         0.012222 /_  168.7 =  -0.011987 +j 0.0023881
------------
111      1        0.0077374 /_ -127.1 =  -0.0046704 +j -0.0061688
111      2           5.1014 /_    6.3 =     5.0703 +j   0.56247
111      3        0.0082032 /_  -11.3 =  0.0080451 +j -0.0016027

ELEMENT = "Line.LN5957494-1"
111      1        0.0077374 /_   52.9 =  0.0046704 +j 0.0061688
111      2           5.1014 /_ -173.7 =    -5.0703 +j  -0.56247
111      3        0.0082032 /_  168.7 =  -0.0080451 +j 0.0016027
------------
124      1      1.5463E-012 /_  162.9 =  -1.4779E-012 +j 4.5475E-013
124      2           5.1038 /_    6.2 =     5.0736 +j   0.55491
124      3       5.457E-012 /_  180.0 =  -5.457E-012 +j         0

ELEMENT = "Line.LN6200532-1"
99       1           108.54 /_  -31.2 =     92.885 +j   -56.149
99       2           126.19 /_ -155.7 =    -114.97 +j   -52.006
99       3           156.69 /_   82.0 =     21.874 +j    155.16
------------
101      1           108.54 /_  148.8 =    -92.883 +j    56.152
101      2           126.19 /_   24.3 =     114.97 +j    52.004
101      3           156.69 /_  -98.0 =    -21.877 +j   -155.16

ELEMENT = "Line.LN5594239-1"
101      1           106.74 /_  -30.8 =     91.725 +j    -54.58
101      2           126.19 /_ -155.7 =    -114.97 +j   -52.004
101      3           156.69 /_   82.0 =     21.877 +j    155.16
------------
104      1           106.74 /_  149.2 =    -91.723 +j    54.583
104      2           126.19 /_   24.3 =     114.97 +j    52.001
104      3           156.69 /_  -98.0 =     -21.88 +j   -155.16

ELEMENT = "Line.LN6078767-1"
104      1           106.74 /_  -30.8 =     91.723 +j   -54.583
104      2           126.19 /_ -155.7 =    -114.97 +j   -52.001
104      3           155.31 /_   82.1 =     21.323 +j    153.83
------------
105      1           106.74 /_  149.2 =    -91.723 +j    54.583
105      2           126.19 /_   24.3 =     114.97 +j        52
105      3           155.31 /_  -97.9 =    -21.324 +j   -153.83

ELEMENT = "Line.LN5503576-1"
105      1           106.74 /_  -30.8 =     91.723 +j   -54.583
105      2           126.19 /_ -155.7 =    -114.97 +j       -52
105      3           155.31 /_   82.1 =     21.324 +j    153.83
------------
107      1           106.74 /_  149.2 =    -91.722 +j    54.585
107      2           126.19 /_   24.3 =     114.98 +j    51.998
107      3           155.31 /_  -97.9 =    -21.326 +j   -153.83

ELEMENT = "Line.LN6200527-1"
107      1           106.74 /_  -30.8 =     91.722 +j   -54.585
107      2           126.19 /_ -155.7 =    -114.98 +j   -51.998
107      3           153.92 /_   82.2 =     20.767 +j    152.51
------------
110      1           106.73 /_  149.2 =     -91.72 +j    54.587
110      2           126.19 /_   24.3 =     114.98 +j    51.995
110      3           153.92 /_  -97.8 =     -20.77 +j   -152.51

ELEMENT = "Line.LN6170293-1"
110      1           106.02 /_  -30.6 =      91.26 +j   -53.961
110      2           126.19 /_ -155.7 =    -114.98 +j   -51.995
110      3           153.92 /_   82.2 =      20.77 +j    152.51
------------
114      1           106.02 /_  149.4 =    -91.259 +j    53.962
114      2           126.19 /_   24.3 =     114.98 +j    51.994
114      3           153.92 /_  -97.8 =    -20.772 +j   -152.51

ELEMENT = "Line.LN5745347-1"
114      1           103.51 /_  -30.0 =     89.641 +j   -51.766
114      2           126.19 /_ -155.7 =    -114.98 +j   -51.994
114      3           153.92 /_   82.2 =     20.772 +j    152.51
------------
115      1           103.51 /_  150.0 =     -89.64 +j    51.767
115      2           126.19 /_   24.3 =     114.98 +j    51.992
115      3           153.92 /_  -97.8 =    -20.773 +j   -152.51

...