DSS_Simulator/ieee650v2_Renamed_withpv/ieee650_EXP_POWERS.CSV
Element, Terminal, P(kW), Q(kvar),  P_Normal, Q_Normal, P_Emergency, Q_Emergency
"Line.LN5815900-1"      ,   1,        -0.0,        -0.0,         0.0,         0.0,         0.0,         0.0
"Line.LN5815900-1"      ,   2,         0.0,         0.0
"Line.LN5742828-1"      ,   1,        -0.0,        -0.0,         0.0,         0.0,         0.0,         0.0
"Line.LN5742828-1"      ,   2,         0.0,         0.0
"Line.LN5742828-2"      ,   1,        -0.0,        -0.0,         0.0,         0.0,         0.0,         0.0
"Line.LN5742828-2"      ,   2,         0.0,         0.0
"Line.LN5473414-1"      ,   1,        -0.0,        -0.0,         0.0,         0.0,         0.0,         0.0
"Line.LN5473414-1"      ,   2,         0.0,         0.0
"Line.LN5714974-1"      ,   1,        -0.0,        -0.0,         0.0,         0.0,         0.0,         0.0
"Line.LN5714974-1"      ,   2,         0.0,         0.0
"Line.LN5896798-1"      ,   1,        -0.0,        -0.0,         0.0,         0.0,         0.0,         0.0
"Line.LN5896798-1"      ,   2,         0.0,         0.0
"Line.LN5775442-1"      ,   1,        -0.0,        -0.0,         0.0,         0.0,         0.0,         0.0
"Line.LN5775442-1"      ,   2,         0.0,         0.0
"Line.CAP_1A"           ,   1,         0.0,        -0.0,         0.0,         0.0,         0.0,         0.0
"Line.CAP_1A"           ,   2,        -0.0,         0.0
"Line.LN5513564-2"      ,   1,        -0.0,        -0.0,         0.0,         0.0,         0.0,         0.0
"Line.LN5513564-2"      ,   2,         0.0,         0.0
"Line.LN5513564-1"      ,   1,        -0.0,        -0.0,         0.0,         0.0,         0.0,         0.0
"Line.LN5513564-1"      ,   2,         0.0,         0.0
"Line.XJ171_48332_SW"   ,   1,        -0.0,        -0.0,         0.0,         0.0,         0.0,         0.0
"Line.XJ171_48332_SW"   ,   2,         0.0,         0.0
"Line.LN6321409-1"      ,   1,        -0.0,        -0.0,         0.0,         0.0,         0.0,         0.0
"Line.LN6321409-1"      ,   2,         0.0,         0.0
"Line.LN5654466-1"      ,   1,        -0.0,        -0.0,         0.0,         0.0,         0.0,         0.0
"Line.LN5654466-1"      ,   2,         0.0,         0.0
"Line.LN6291242-1"      ,   1,        -0.0,        -0.0,         0.0,         0.0,         0.0,         0.0
"Line.LN6291242-1"      ,   2,         0.0,         0.0
"Line.LN5654472-1"      ,   1,        -0.0,        -0.0,         0.0,         0.0,         0.0,         0.0
"Line.LN5654472-1"      ,   2,         0.0,         0.0
"Line.LN5594242-1"      ,   1,        -0.0,        -0.0,         0.0,         0.0,         0.0,         0.0
"Line.LN5594242-1"      ,   2,         0.0,         0.0
"Line.LN6351519-1"      ,   1,        -0.0,        -0.0,         0.0,         0.0,         0.0,         0.0
"Line.LN6351519-1"      ,   2,         0.0,         0.0
"Line.LN6261021-1"      ,   1,        -0.0,        -0.0,         0.0,         0.0,         0.0,         0.0
"Line.LN6261021-1"      ,   2,         0.0,         0.0
"Line.LN5473440-1"      ,   1,        -0.0,        -0.0,         0.0,         0.0,         0.0,         0.0
"Line.LN5473440-1"      ,   2,         0.0,         0.0
"Line.LN5866268-1"      ,   1,        -0.0,        -0.0,         0.0,         0.0,         0.0,         0.0
"Line.LN5866268-1"      ,   2,         0.0,         0.0
"Line.LN6048634-1"      ,   1,        -0.0,        -0.0,         0.0,         0.0,         0.0,         0.0
"Line.LN6048634-1"      ,   2,         0.0,         0.0
"Line.LN6504019-5"      ,   1,        -0.0,        -0.0,         0.0,         0.0,         0.0,         0.0
"Line.LN6504019-5"      ,   2,         0.0,         0.0
"Line.LN6504020-2"      ,   1,        -0.0,        -0.0,         0.0,         0.0,         0.0,         0.0
"Line.LN6504020-2"      ,   2,         0.0,         0.0
"Line.LN6504018-1"      ,   1,        -0.0,        -0.0,         0.0,         0.0,         0.0,         0.0
"Line.LN6504018-1"      ,   2,         0.0,         0.0
"Line.LN5957526-1"      ,   1,        -0.0,        -0.0,         0.0,         0.0,         0.0,         0.0
"Line.LN5957526-1"      ,   2,         0.0,         0.0
"Line.LN5715052-1"      ,   1,        -0.0,        -0.0,         0.0,         0.0,         0.0,         0.0
"Line.LN5715052-1"      ,   2,         0.0,         0.0
"Line.LN5866308-1"      ,   1,        -0.0,        -0.0,         0.0,         0.0,         0.0,         0.0
"Line.LN5866308-1"      ,   2,         0.0,         0.0
"Line.LN6412354-1"      ,   1,        -0.0,        -0.0,         0.0,         0.0,         0.0,         0.0
"Line.LN6412354-1"      ,   2,         0.0,         0.0
"Line.LN6412355-1"      ,   1,        -0.0,        -0.0,         0.0,         0.0,         0.0,         0.0
"Line.LN6412355-1"      ,   2,         0.0,         0.0
"Line.LN5745355-1"      ,   1,        -0.0,        -0.0,         0.0,         0.0,         0.0,         0.0
"Line.LN5745355-1"      ,   2,         0.0,         0.0
"Line.LN5896834-1"      ,   1,        -0.0,        -0.0,         0.0,         0.0,         0.0,         0.0
"Line.LN5896834-1"      ,   2,         0.0,         0.0
"Line.LN6023352-1"      ,   1,        -0.0,        -0.0,         0.0,         0.0,         0.0,         0.0
"Line.LN6023352-1"      ,   2,         0.0,         0.0
"Line.L9407_48332_SW"   ,   1,        -0.0,        -0.0,         0.0,         0.0,         0.0,         0.0
"Line.L9407_48332_SW"   ,   2,         0.0,         0.0
"Line.LN6326450-1"      ,   1,        -0.0,        -0.0,         0.0,         0.0,         0.0,         0.0
"Line.LN6326450-1"      ,   2,         0.0,         0.0
"Line.LN5992960-1"      ,   1,        -0.0,        -0.0,         0.0,         0.0,         0.0,         0.0
"Line.LN5992960-1"      ,   2,         0.0,         0.0
"Line.LN5508630-1"      ,   1,        -0.0,        -0.0,         0.0,         0.0,         0.0,         0.0
"Line.LN5508630-1"      ,   2,         0.0,         0.0
"Line.LN5805762-1"      ,   1,        -0.0,        -0.0,         0.0,         0.0,         0.0,         0.0
"Line.LN5805762-1"      ,   2,         0.0,         0.0
"Line.LN6018336-1"      ,   1,        -0.0,        -0.0,         0.0,         0.0,         0.0,         0.0
"Line.LN6018336-1"      ,   2,         0.0,         0.0
"Line.LN5563942-4"      ,   1,        -0.0,        -0.0,         0.0,         0.0,         0.0,         0.0
"Line.LN5563942-4"      ,   2,         0.0,         0.0
"Line.2002200004868472_SW",   1,        -0.0,        -0.0,         0.0,         0.0,         0.0,         0.0
"Line.2002200004868472_SW",   2,         0.0,         0.0
"Line.CAP_2A"           ,   1,         0.0,        -0.0,         0.0,         0.0,         0.0,         0.0
"Line.CAP_2A"           ,   2,        -0.0,         0.0
"Line.LN5563942-5"      ,   1,        -0.0,        -0.0,         0.0,         0.0,         0.0,         0.0
"Line.LN5563942-5"      ,   2,         0.0,         0.0
"Line.LN5563942-3"      ,   1,        -0.0,        -0.0,         0.0,         0.0,         0.0,         0.0
"Line.LN5563942-3"      ,   2,         0.0,         0.0
"Line.LN5896833-1"      ,   1,        -0.0,        -0.0,         0.0,         0.0,         0.0,         0.0
"Line.LN5896833-1"      ,   2,         0.0,         0.0
"Line.LN5805761-1"      ,   1,        -0.0,        -0.0,         0.0,         0.0,         0.0,         0.0
"Line.LN5805761-1"      ,   2,         0.0,         0.0
"Line.LN5799561-1"      ,   1,         0.0,         0.0,         0.0,         0.0,         0.0,         0.0
"Line.LN5799561-1"      ,   2,        -0.0,        -0.0
"Line.LN5799561-2"      ,   1,         0.0,         0.0,         0.0,         0.0,         0.0,         0.0
"Line.LN5799561-2"      ,   2,        -0.0,        -0.0
"Line.A8611_48332_SW"   ,   1,         0.0,         0.0,         0.0,         0.0,         0.0,         0.0
"Line.A8611_48332_SW"   ,   2,        -0.0,        -0.0
"Line.LN5594236-1"      ,   1,         0.0,         0.0,         0.0,         0.0,         0.0,         0.0
"Line.LN5594236-1"      ,   2,        -0.0,        -0.0
"Line.LN5503575-1"      ,   1,         0.0,         0.0,         0.0,         0.0,         0.0,         0.0
"Line.LN5503575-1"      ,   2,        -0.0,        -0.0
"Line.LN6018331-1"      ,   1,         0.0,         0.0,         0.0,         0.0,         0.0,         0.0
"Line.LN6018331-1"      ,   2,        -0.0,        -0.0
"Line.LN6291244-1"      ,   1,         0.0,         0.0,         0.0,         0.0,         0.0,         0.0
"Line.LN6291244-1"      ,   2,        -0.0,        -0.0
"Line.LN5473436-1"      ,   1,         0.0,         0.0,         0.0,         0.0,         0.0,         0.0
"Line.LN5473436-1"      ,   2,        -0.0,        -0.0
"Line.LN5473436-2"      ,   1,         0.0,         0.0,         0.0,         0.0,         0.0,         0.0
"Line.LN5473436-2"      ,   2,        -0.0,        -0.0
"Line.LN5896825-1"      ,   1,         0.0,         0.0,         0.0,         0.0,         0.0,         0.0
"Line.LN5896825-1"      ,   2,        -0.0,        -0.0
"Line.LN6351510-1"      ,   1,         0.0,         0.0,         0.0,         0.0,         0.0,         0.0
"Line.LN6351510-1"      ,   2,        -0.0,        -0.0
"Line.LN5654471-1"      ,   1,         0.0,         0.0,         0.0,         0.0,         0.0,         0.0
"Line.LN5654471-1"      ,   2,        -0.0,        -0.0
"Line.LN5745348-1"      ,   1,         0.0,         0.0,         0.0,         0.0,         0.0,         0.0
"Line.LN5745348-1"      ,   2,        -0.0,        -0.0
"Line.LN5504876-1"      ,   1,         0.0,         0.0,         0.0,         0.0,         0.0,         0.0
"Line.LN5504876-1"      ,   2,        -0.0,        -0.0
"Line.LN5928744-1"      ,   1,         0.0,         0.0,         0.0,         0.0,         0.0,         0.0
"Line.LN5928744-1"      ,   2,        -0.0,        -0.0
"Line.LN5927423-1"      ,   1,         0.0,         0.0,         0.0,         0.0,         0.0,         0.0
"Line.LN5927423-1"      ,   2,        -0.0,        -0.0
"Line.LN5684911-1"      ,   1,         0.0,         0.0,         0.0,         0.0,         0.0,         0.0
"Line.LN5684911-1"      ,   2,        -0.0,        -0.0
"Line.LN5957494-1"      ,   1,         0.0,         0.0,         0.0,         0.0,         0.0,         0.0
"Line.LN5957494-1"      ,   2,        -0.0,        -0.0
"Line.LN6200532-1"      ,   1,         0.0,         0.0,         0.0,         0.0,         0.0,         0.0
"Line.LN6200532-1"      ,   2,        -0.0,        -0.0
"Line.LN5594239-1"      ,   1,         0.0,         0.0,         0.0,         0.0,         0.0,         0.0
"Line.LN5594239-1"      ,   2,        -0.0,        -0.0
"Line.LN6078767-1"      ,   1,         0.0,         0.0,         0.0,         0.0,         0.0,         0.0
"Line.LN6078767-1"      ,   2,        -0.0,        -0.0
"Line.LN5503576-1"      ,   1,         0.0,         0.0,         0.0,         0.0,         0.0,         0.0
"Line.LN5503576-1"      ,   2,        -0.0,        -0.0
"Line.LN6200527-1"      ,   1,         0.0,         0.0,         0.0,         0.0,         0.0,         0.0
"Line.LN6200527-1"      ,   2,        -0.0,        -0.0
"Line.LN6170293-1"      ,   1,         0.0,         0.0,         0.0,         0.0,         0.0,         0.0
"Line.LN6170293-1"      ,   2,        -0.0,        -0.0
"Line.LN5745347-1"      ,   1,         0.0,         0.0,         0.0,         0.0,         0.0,         0.0
"Line.LN5745347-1"      ,   2,        -0.0,        -0.0
"Line.LN5957493-1"      ,   1,         0.0,         0.0,         0.0,         0.0,         0.0,         0.0
"Line.LN5957493-1"      ,   2,        -0.0,        -0.0
"Line.LN6078768-1"      ,   1,         0.0,         0.0,         0.0,         0.0,         0.0,         0.0
"Line.LN6078768-1"      ,   2,        -0.0,        -0.0
"Line.LN6351511-1"      ,   1,         0.0,         0.0,         0.0,         0.0,         0.0,         0.0
"Line.LN6351511-1"      ,   2,        -0.0,        -0.0
"Line.LN5958866-1"      ,   1,         0.0,         0.0,         0.0,         0.0,         0.0,         0.0
"Line.LN5958866-1"      ,   2,        -0.0,        -0.0
"Line.A8645_48332_SW"   ,   1,         0.0,         0.0,         0.0,         0.0,         0.0,         0.0
"Line.A8645_48332_SW"   ,   2,        -0.0,        -0.0
"Line.LN6201850-1"      ,   1,         0.0,         0.0,         0.0,         0.0,         0.0,         0.0
"Line.LN6201850-1"      ,   2,        -0.0,        -0.0
"Line.LN6291252-1"      ,   1,         0.0,         0.0,         0.0,         0.0,         0.0,         0.0
"Line.LN6291252-1"      ,   2,        -0.0,        -0.0
"Line.LN6291252-2"      ,   1,         0.0,         0.0,         0.0,         0.0,         0.0,         0.0
"Line.LN6291252-2"      ,   2,        -0.0,        -0.0
"Line.LN6018341-1"      ,   1,         0.0,         0.0,         0.0,         0.0,         0.0,         0.0
"Line.LN6018341-1"      ,   2,        -0.0,        -0.0
"Line.LN6291253-1"      ,   1,         0.0,        -0.0,         0.0,         0.0,         0.0,         0.0
"Line.LN6291253-1"      ,   2,        -0.0,         0.0
"Line.LN6170302-1"      ,   1,         0.0,        -0.0,         0.0,         0.0,         0.0,         0.0
"Line.LN6170302-1"      ,   2,        -0.0,         0.0
"Line.LN6321427-1"      ,   1,         0.0,        -0.0,         0.0,         0.0,         0.0,         0.0
"Line.LN6321427-1"      ,   2,        -0.0,         0.0
"Line.LN5531195-1"      ,   1,         0.0,        -0.0,         0.0,         0.0,         0.0,         0.0
"Line.LN5531195-1"      ,   2,        -0.0,         0.0
"Line.LN6106511-1"      ,   1,         0.0,        -0.0,         0.0,         0.0,         0.0,         0.0
"Line.LN6106511-1"      ,   2,        -0.0,         0.0
"Line.LN6351524-1"      ,   1,         0.0,        -0.0,         0.0,         0.0,         0.0,         0.0
"Line.LN6351524-1"      ,   2,        -0.0,         0.0
"Line.LN6109158-1"      ,   1,         0.0,        -0.0,         0.0,         0.0,         0.0,         0.0
"Line.LN6109158-1"      ,   2,        -0.0,         0.0
"Line.LN5473449-1"      ,   1,         0.0,        -0.0,         0.0,         0.0,         0.0,         0.0
"Line.LN5473449-1"      ,   2,        -0.0,         0.0
"Line.LN6079946-1"      ,   1,         0.0,        -0.0,         0.0,         0.0,         0.0,         0.0
"Line.LN6079946-1"      ,   2,        -0.0,         0.0
"Line.LN6256144-4"      ,   1,         0.0,        -0.0,         0.0,         0.0,         0.0,         0.0
"Line.LN6256144-4"      ,   2,        -0.0,         0.0
"Line.LN6256144-3"      ,   1,         0.0,        -0.0,         0.0,         0.0,         0.0,         0.0
"Line.LN6256144-3"      ,   2,        -0.0,         0.0
"Line.LN6256144-1"      ,   1,         0.0,        -0.0,         0.0,         0.0,         0.0,         0.0
"Line.LN6256144-1"      ,   2,        -0.0,         0.0
"Line.LN5527400-1"      ,   1,         0.0,        -0.0,         0.0,         0.0,         0.0,         0.0
"Line.LN5527400-1"      ,   2,        -0.0,         0.0
"Line.LN5955063-1"      ,   1,         0.0,        -0.0,         0.0,         0.0,         0.0,         0.0
"Line.LN5955063-1"      ,   2,        -0.0,         0.0
"Line.LN6440069-1"      ,   1,         0.0,        -0.0,         0.0,         0.0,         0.0,         0.0
"Line.LN6440069-1"      ,   2,        -0.0,         0.0
"Line.LN5623403-1"      ,   1,         0.0,        -0.0,         0.0,         0.0,         0.0,         0.0
"Line.LN5623403-1"      ,   2,        -0.0,         0.0
"Line.LN5502533-1"      ,   1,         0.0,        -0.0,         0.0,         0.0,         0.0,         0.0
"Line.LN5502533-1"      ,   2,        -0.0,         0.0
"Line.LN6259995-1"      ,   1,         0.0,        -0.0,         0.0,         0.0,         0.0,         0.0
"Line.LN6259995-1"      ,   2,        -0.0,         0.0
"Line.LN6350541-1"      ,   1,         0.0,        -0.0,         0.0,         0.0,         0.0,         0.0
"Line.LN6350541-1"      ,   2,        -0.0,         0.0
"Line.LN5502531-1"      ,   1,         0.0,        -0.0,         0.0,         0.0,         0.0,         0.0
"Line.LN5502531-1"      ,   2,        -0.0,         0.0
"Line.LN6290212-1"      ,   1,         0.0,        -0.0,         0.0,         0.0,         0.0,         0.0
"Line.LN6290212-1"      ,   2,        -0.0,         0.0
"Line.LN6138608-3"      ,   1,         0.0,        -0.0,         0.0,         0.0,         0.0,         0.0
"Line.LN6138608-3"      ,   2,        -0.0,         0.0
"Line.LN4586093_SW"     ,   1,         0.0,        -0.0,         0.0,         0.0,         0.0,         0.0
"Line.LN4586093_SW"     ,   2,        -0.0,         0.0
"Line.LN6138608-2"      ,   1,         0.0,        -0.0,         0.0,         0.0,         0.0,         0.0
"Line.LN6138608-2"      ,   2,        -0.0,         0.0
"Line.LN5502532-1"      ,   1,         0.0,        -0.0,         0.0,         0.0,         0.0,         0.0
"Line.LN5502532-1"      ,   2,        -0.0,         0.0
"Line.LN5472360-1"      ,   1,         0.0,        -0.0,         0.0,         0.0,         0.0,         0.0
"Line.LN5472360-1"      ,   2,        -0.0,         0.0
"Line.LN5683823-1"      ,   1,         0.0,        -0.0,         0.0,         0.0,         0.0,         0.0
"Line.LN5683823-1"      ,   2,        -0.0,         0.0
"Line.LN5835143-1"      ,   1,         0.0,        -0.0,         0.0,         0.0,         0.0,         0.0
"Line.LN5835143-1"      ,   2,        -0.0,         0.0
"Line.LN5593234-1"      ,   1,         0.0,        -0.0,         0.0,         0.0,         0.0,         0.0
"Line.LN5593234-1"      ,   2,        -0.0,         0.0
"Line.LN5863823-1"      ,   1,         0.0,        -0.0,         0.0,         0.0,         0.0,         0.0
"Line.LN5863823-1"      ,   2,        -0.0,         0.0
"Line.LN5501088-1"      ,   1,         0.0,        -0.0,         0.0,         0.0,         0.0,         0.0
"Line.LN5501088-1"      ,   2,        -0.0,         0.0
"Line.LN6108136-1"      ,   1,         0.0,        -0.0,         0.0,         0.0,         0.0,         0.0
"Line.LN6108136-1"      ,   2,        -0.0,         0.0
"Line.LN6017299-1"      ,   1,         0.0,        -0.0,         0.0,         0.0,         0.0,         0.0
"Line.LN6017299-1"      ,   2,        -0.0,         0.0
"Line.LN6413567-2"      ,   1,         0.0,        -0.0,         0.0,         0.0,         0.0,         0.0
"Line.LN6413567-2"      ,   2,        -0.0,         0.0
"Line.LN6413567-3"      ,   1,         0.0,        -0.0,         0.0,         0.0,         0.0,         0.0
"Line.LN6413567-3"      ,   2,        -0.0,         0.0
"Line.X8223_48332_SW"   ,   1,         0.0,        -0.0,         0.0,         0.0,         0.0,         0.0
"Line.X8223_48332_SW"   ,   2,        -0.0,         0.0
"Line.LN5806919-1"      ,   1,         0.0,        -0.0,         0.0,         0.0,         0.0,         0.0
"Line.LN5806919-1"      ,   2,        -0.0,         0.0
"Line.LN5804791-1"      ,   1,         0.0,        -0.0,         0.0,         0.0,         0.0,         0.0
"Line.LN5804791-1"      ,   2,        -0.0,         0.0
"Line.LN5593222-1"      ,   1,         0.0,        -0.0,         0.0,         0.0,         0.0,         0.0
"Line.LN5593222-1"      ,   2,        -0.0,         0.0
"Line.LN5956463-1"      ,   1,         0.0,        -0.0,         0.0,         0.0,         0.0,         0.0
"Line.LN5956463-1"      ,   2,        -0.0,         0.0
"Line.LN6320329-1"      ,   1,         0.0,        -0.0,         0.0,         0.0,         0.0,         0.0
"Line.LN6320329-1"      ,   2,        -0.0,         0.0
"Line.LN5774453-1"      ,   1,         0.0,        -0.0,         0.0,         0.0,         0.0,         0.0
"Line.LN5774453-1"      ,   2,        -0.0,         0.0
"Line.LN5532743-1"      ,   1,         0.0,        -0.0,         0.0,         0.0,         0.0,         0.0
"Line.LN5532743-1"      ,   2,        -0.0,         0.0
"Line.LN6047561-1"      ,   1,         0.0,        -0.0,         0.0,         0.0,         0.0,         0.0
"Line.LN6047561-1"      ,   2,        -0.0,         0.0
"Line.LN6229807-1"      ,   1,         0.0,        -0.0,         0.0,         0.0,         0.0,         0.0
"Line.LN6229807-1"      ,   2,        -0.0,         0.0
"Line.LN5593239-1"      ,   1,         0.0,        -0.0,         0.0,         0.0,         0.0,         0.0
"Line.LN5593239-1"      ,   2,        -0.0,         0.0
"Line.LN5804802-1"      ,   1,         0.0,        -0.0,         0.0,         0.0,         0.0,         0.0
"Line.LN5804802-1"      ,   2,        -0.0,         0.0
"Line.LN6138614-1"      ,   1,         0.0,        -0.0,         0.0,         0.0,         0.0,         0.0
"Line.LN6138614-1"      ,   2,        -0.0,         0.0
"Line.LN6199530-1"      ,   1,         0.0,         0.0,         0.0,         0.0,         0.0,         0.0
"Line.LN6199530-1"      ,   2,        -0.0,        -0.0
"Line.LN6199527-1"      ,   1,         0.0,         0.0,         0.0,         0.0,         0.0,         0.0
"Line.LN6199527-1"      ,   2,        -0.0,        -0.0
"Line.LN5683831-1"      ,   1,         0.0,         0.0,         0.0,         0.0,         0.0,         0.0
"Line.LN5683831-1"      ,   2,        -0.0,        -0.0
"Line.LN5472369-1"      ,   1,         0.0,         0.0,         0.0,         0.0,         0.0,         0.0
"Line.LN5472369-1"      ,   2,        -0.0,        -0.0
"Line.LN5865248-1"      ,   1,         0.0,         0.0,         0.0,         0.0,         0.0,         0.0
"Line.LN5865248-1"      ,   2,        -0.0,        -0.0
"Line.LN6047584-1"      ,   1,         0.0,         0.0,         0.0,         0.0,         0.0,         0.0
"Line.LN6047584-1"      ,   2,        -0.0,        -0.0
"Line.LN6047583-1"      ,   1,         0.0,         0.0,         0.0,         0.0,         0.0,         0.0
"Line.LN6047583-1"      ,   2,        -0.0,        -0.0
"Line.LN5472370-1"      ,   1,         0.0,         0.0,         0.0,         0.0,         0.0,         0.0
"Line.LN5472370-1"      ,   2,        -0.0,        -0.0
"Line.LN5926308-3"      ,   1,         0.0,         0.0,         0.0,         0.0,         0.0,         0.0
"Line.LN5926308-3"      ,   2,        -0.0,        -0.0
"Line.LN4625696_SW"     ,   1,         0.0,         0.0,         0.0,         0.0,         0.0,         0.0
"Line.LN4625696_SW"     ,   2,        -0.0,        -0.0
"Line.LN5926308-2"      ,   1,         0.0,         0.0,         0.0,         0.0,         0.0,         0.0
"Line.LN5926308-2"      ,   2,        -0.0,        -0.0
"Line.LN6350546-1"      ,   1,         0.0,         0.0,         0.0,         0.0,         0.0,         0.0
"Line.LN6350546-1"      ,   2,        -0.0,        -0.0
"Line.LN5986935-1"      ,   1,         0.0,         0.0,         0.0,         0.0,         0.0,         0.0
"Line.LN5986935-1"      ,   2,        -0.0,        -0.0
"Line.LN5744341-1"      ,   1,         0.0,         0.0,         0.0,         0.0,         0.0,         0.0
"Line.LN5744341-1"      ,   2,        -0.0,        -0.0
"Line.LN5714080-1"      ,   1,         0.0,         0.0,         0.0,         0.0,         0.0,         0.0
"Line.LN5714080-1"      ,   2,        -0.0,        -0.0
"Line.LN5593253-1"      ,   1,         0.0,         0.0,         0.0,         0.0,         0.0,         0.0
"Line.LN5593253-1"      ,   2,        -0.0,        -0.0
"Line.LN6199560-1"      ,   1,         0.0,         0.0,         0.0,         0.0,         0.0,         0.0
"Line.LN6199560-1"      ,   2,        -0.0,        -0.0
"Line.LN6320367-3"      ,   1,         0.0,         0.0,         0.0,         0.0,         0.0,         0.0
"Line.LN6320367-3"      ,   2,        -0.0,        -0.0
"Line.LN6320367-2"      ,   1,         0.0,         0.0,         0.0,         0.0,         0.0,         0.0
"Line.LN6320367-2"      ,   2,        -0.0,        -0.0
"Line.LN6049825-1"      ,   1,         0.0,         0.0,         0.0,         0.0,         0.0,         0.0
"Line.LN6049825-1"      ,   2,        -0.0,        -0.0
"Line.L5523_48332_SW"   ,   1,         0.0,         0.0,         0.0,         0.0,         0.0,         0.0
"Line.L5523_48332_SW"   ,   2,        -0.0,        -0.0
"Line.LN6171508-1"      ,   1,         0.0,         0.0,         0.0,         0.0,         0.0,         0.0
"Line.LN6171508-1"      ,   2,        -0.0,        -0.0
"Line.LN6350577-1"      ,   1,         0.0,         0.0,         0.0,         0.0,         0.0,         0.0
"Line.LN6350577-1"      ,   2,        -0.0,        -0.0
"Line.LN6380847-1"      ,   1,         0.0,         0.0,         0.0,         0.0,         0.0,         0.0
"Line.LN6380847-1"      ,   2,        -0.0,        -0.0
"Line.LN5865272-1"      ,   1,         0.0,         0.0,         0.0,         0.0,         0.0,         0.0
"Line.LN5865272-1"      ,   2,        -0.0,        -0.0
"Line.LN5774497-1"      ,   1,         0.0,         0.0,         0.0,         0.0,         0.0,         0.0
"Line.LN5774497-1"      ,   2,        -0.0,        -0.0
"Line.LN5804836-1"      ,   1,         0.0,         0.0,         0.0,         0.0,         0.0,         0.0
"Line.LN5804836-1"      ,   2,        -0.0,        -0.0
"Line.LN6379462-1"      ,   1,         0.0,         0.0,         0.0,         0.0,         0.0,         0.0
"Line.LN6379462-1"      ,   2,        -0.0,        -0.0
"Line.LN6379462-2"      ,   1,         0.0,         0.0,         0.0,         0.0,         0.0,         0.0
"Line.LN6379462-2"      ,   2,        -0.0,        -0.0
"Line.LN6379462-3"      ,   1,         0.0,         0.0,         0.0,         0.0,         0.0,         0.0
"Line.LN6379462-3"      ,   2,        -0.0,        -0.0
"Line.LN6047605-1"      ,   1,         0.0,         0.0,         0.0,         0.0,         0.0,         0.0
"Line.LN6047605-1"      ,   2,        -0.0,        -0.0
"Line.LN6229835-1"      ,   1,         0.0,         0.0,         0.0,         0.0,         0.0,         0.0
"Line.LN6229835-1"      ,   2,        -0.0,        -0.0
"Line.LN6320368-1"      ,   1,         0.0,         0.0,         0.0,         0.0,         0.0,         0.0
"Line.LN6320368-1"      ,   2,        -0.0,        -0.0
"Line.LN5956503-1"      ,   1,         0.0,         0.0,         0.0,         0.0,         0.0,         0.0
"Line.LN5956503-1"      ,   2,        -0.0,        -0.0
"Line.LN5532791-1"      ,   1,         0.0,         0.0,         0.0,         0.0,         0.0,         0.0
"Line.LN5532791-1"      ,   2,        -0.0,        -0.0
"Line.LN5895818-1"      ,   1,         0.0,         0.0,         0.0,         0.0,         0.0,         0.0
"Line.LN5895818-1"      ,   2,        -0.0,        -0.0
"Line.LN5865271-1"      ,   1,         0.0,         0.0,         0.0,         0.0,         0.0,         0.0
"Line.LN5865271-1"      ,   2,        -0.0,        -0.0
"Line.LN5774496-1"      ,   1,         0.0,         0.0,         0.0,         0.0,         0.0,         0.0
"Line.LN5774496-1"      ,   2,        -0.0,        -0.0
"Line.LN5623408-1"      ,   1,         0.0,         0.0,         0.0,         0.0,         0.0,         0.0
"Line.LN5623408-1"      ,   2,        -0.0,        -0.0
"Line.LN5683830-1"      ,   1,         0.0,         0.0,         0.0,         0.0,         0.0,         0.0
"Line.LN5683830-1"      ,   2,        -0.0,        -0.0
"Line.LN6017302-1"      ,   1,         0.0,         0.0,         0.0,         0.0,         0.0,         0.0
"Line.LN6017302-1"      ,   2,        -0.0,        -0.0
"Line.LN6198013-2"      ,   1,         0.0,         0.0,         0.0,         0.0,         0.0,         0.0
"Line.LN6198013-2"      ,   2,        -0.0,        -0.0
"Line.LN6198013-1"      ,   1,         0.0,         0.0,         0.0,         0.0,         0.0,         0.0
"Line.LN6198013-1"      ,   2,        -0.0,        -0.0
"Line.LN5835149-1"      ,   1,         0.0,         0.0,         0.0,         0.0,         0.0,         0.0
"Line.LN5835149-1"      ,   2,        -0.0,        -0.0
"Line.LN5895787-1"      ,   1,         0.0,         0.0,         0.0,         0.0,         0.0,         0.0
"Line.LN5895787-1"      ,   2,        -0.0,        -0.0
"Line.LN6262266-12"     ,   1,         0.0,         0.0,         0.0,         0.0,         0.0,         0.0
"Line.LN6262266-12"     ,   2,        -0.0,        -0.0
"Line.LN6262266-13"     ,   1,         0.0,         0.0,         0.0,         0.0,         0.0,         0.0
"Line.LN6262266-13"     ,   2,        -0.0,        -0.0
"Line.LN5686080-1"      ,   1,         0.0,         0.0,         0.0,         0.0,         0.0,         0.0
"Line.LN5686080-1"      ,   2,        -0.0,        -0.0
"Line.LN293471_SW"      ,   1,         0.0,         0.0,         0.0,         0.0,         0.0,         0.0
"Line.LN293471_SW"      ,   2,        -0.0,        -0.0
"Line.293471"           ,   1,         0.0,         0.0,         0.0,         0.0,         0.0,         0.0
"Line.293471"           ,   2,        -0.0,        -0.0
"Line.LN5604685-1"      ,   1,         0.0,         0.0,         0.0,         0.0,         0.0,         0.0
"Line.LN5604685-1"      ,   2,        -0.0,        -0.0
"Line.LN6028890-1"      ,   1,         0.0,         0.0,         0.0,         0.0,         0.0,         0.0
"Line.LN6028890-1"      ,   2,        -0.0,        -0.0
"Line.LN5604685-2"      ,   1,         0.0,         0.0,         0.0,         0.0,         0.0,         0.0
"Line.LN5604685-2"      ,   2,        -0.0,        -0.0
"Line.LN6381853-1"      ,   1,        -0.0,        -0.0,         0.0,         0.0,         0.0,         0.0
"Line.LN6381853-1"      ,   2,         0.0,         0.0
"Line.LN6413954-1"      ,   1,        -0.0,        -0.0,         0.0,         0.0,         0.0,         0.0
"Line.LN6413954-1"      ,   2,         0.0,         0.0
...